<?xml version="1.0" encoding="UTF-8"?>

<!-- generated on 2025-09-19 13:56:15 by Eclipse SUMO polyconvert Version 1.24.0
<polyconvertConfiguration xmlns:xsi="http://www.w3.org/2001/XMLSchema-instance" xsi:noNamespaceSchemaLocation="http://sumo.dlr.de/xsd/polyconvertConfiguration.xsd">

    <input>
        <net-file value="osm.net.xml.gz"/>
        <shapefile-prefixes value="manhattan_taxi_zones"/>
        <shapefile.guess-projection value="true"/>
        <shapefile.id-column value="LocationID"/>
    </input>

    <output>
        <output-file value="taxi_zones.poly.xml"/>
    </output>

    <report>
        <verbose value="true"/>
    </report>

</polyconvertConfiguration>
-->

<additional xmlns:xsi="http://www.w3.org/2001/XMLSchema-instance" xsi:noNamespaceSchemaLocation="http://sumo.dlr.de/xsd/additional_file.xsd">
    <location netOffset="-581615.60,-4503762.54" convBoundary="-1153.48,255.09,10508.84,22884.51" origBoundary="-74.047730,40.679889,-73.890410,40.915051" projParameter="+proj=utm +zone=18 +ellps=WGS84 +datum=WGS84 +units=m +no_defs"/>

    <poly id="100" type="unknown" color="51,128,255" fill="1" layer="-1.00" shape="3875.631096,7786.097251 3836.358182,7711.861172 3822.104065,7719.239402 3593.955849,7842.820334 3466.954954,7911.340544 3352.512825,7973.085019 3392.593488,8047.190961 3429.859376,8116.508880 3467.022486,8185.458683 3503.910695,8254.237452 3541.552167,8323.841656 3578.832099,8393.165809 3616.042215,8462.112120 3656.161966,8536.466496 3772.756241,8473.622645 3897.602900,8406.330817 3943.847061,8381.565852 4138.125952,8276.567543 4098.605266,8202.268054 4061.604124,8132.696181 4024.871039,8063.552167 3986.972621,7994.460843 3949.541018,7925.547882 3912.294301,7856.472069 3875.631096,7786.097251"/>
    <poly id="103" type="unknown" color="51,128,255" fill="1" layer="-1.00" shape="-829.003394,1042.511130 -796.324679,987.638779 -731.648593,1028.624238 -735.873997,1036.436762 -729.151576,1040.309950 -716.196773,1019.085958 -723.385526,1015.168243 -728.075387,1022.786688 -793.015980,982.082793 -796.604736,932.534067 -806.604552,885.300605 -834.587453,864.551668 -869.204991,856.822480 -902.996499,865.279080 -1029.898103,945.140521 -1075.220426,1014.127794 -1131.731227,975.559201 -1153.483979,1009.067429 -1141.405146,1016.657547 -1128.139080,996.971520 -1082.885427,1025.795118 -1109.370574,1066.109409 -1101.838801,1071.253276 -1102.510952,1091.828129 -1108.315636,1101.928851 -1109.324239,1103.684103 -1110.905029,1106.689258 -1111.991060,1109.906475 -1112.555021,1113.254901 -1112.582738,1116.650353 -1112.073568,1120.007538 -1111.040298,1123.242072 -1109.508821,1126.272707 -1107.517701,1129.023240 -1105.057981,1131.180056 -1102.307973,1132.951985 -1099.327413,1134.300534 -1096.180996,1135.196389 -1092.937133,1135.620126 -1023.267536,1141.777685 -1021.218859,1144.538180 -1016.859097,1144.298764 -1012.535473,1143.689466 -1008.279309,1142.714707 -1002.485085,1140.296060 -996.905766,1137.416081 -890.357582,1084.992489 -829.003394,1042.511130"/>
    <poly id="107" type="unknown" color="51,128,255" fill="1" layer="-1.00" shape="4314.422651,5677.273394 4300.145359,5670.323273 4097.488458,5778.718461 3907.171832,5881.385459 3771.304090,5954.564875 3675.823336,6005.578183 3669.616218,6057.662188 3668.819732,6065.945010 3668.600653,6074.263119 3668.960115,6082.576338 3669.896299,6090.844566 3671.404766,6099.027676 3673.478197,6107.086280 3677.007310,6113.667838 3711.689028,6178.347302 3731.982922,6214.093888 3748.035744,6242.370892 3782.975024,6307.433174 3817.169235,6373.128874 3853.438182,6438.099393 3889.765196,6504.114276 3911.727348,6544.707784 3927.167466,6573.245721 3967.501818,6647.316517 4007.365621,6721.961661 4044.690741,6790.932243 4081.884268,6860.041293 4119.201442,6929.093922 4156.529065,6998.101479 4162.162511,6995.313416 4294.146130,6924.449426 4429.731221,6850.839109 4392.353031,6781.699883 4355.179483,6712.677933 4317.994896,6643.570913 4280.487569,6574.613132 4471.401023,6471.712187 4550.235848,6429.247570 4599.088926,6402.933531 4672.467548,6363.408090 4635.778395,6278.271551 4629.504440,6265.578004 4601.907834,6208.285440 4565.626244,6140.027514 4557.541577,6124.546207 4529.164680,6073.956943 4504.247455,6027.321741 4494.787784,6009.553917 4477.018217,5976.540425 4458.412855,5941.851948 4424.675415,5878.084769 4387.785266,5812.166446 4362.623058,5765.933953 4349.024232,5741.103089 4319.670151,5686.953704 4314.422651,5677.273394"/>
    <poly id="113" type="unknown" color="51,128,255" fill="1" layer="-1.00" shape="3561.230249,5240.986798 3546.253604,5188.600051 3410.292910,5273.384694 3316.181470,5332.840973 3247.420511,5376.275146 3183.502817,5416.595224 3118.870806,5457.123055 3161.088318,5524.554522 3202.658515,5587.196938 3082.551241,5662.830055 2943.219173,5750.789174 2819.509600,5828.626862 2845.069289,5874.668331 2861.770994,5904.753780 2892.189474,5963.302064 2931.338960,6035.804308 2946.572932,6064.180937 2967.744175,6103.640553 3006.597889,6175.250705 3044.895351,6246.267765 3086.352235,6323.679241 3360.221584,6176.224503 3521.820340,6090.461491 3565.649378,6068.435155 3603.448074,6049.639088 3675.823336,6005.578183 3679.890664,5904.853411 3667.503221,5819.131990 3652.848868,5734.592562 3638.705441,5655.847723 3629.876835,5575.414558 3612.198438,5499.020678 3609.673675,5483.686672 3595.806887,5417.077028 3580.323028,5353.136118 3561.384491,5265.711608 3561.230249,5240.986798"/>
    <poly id="114" type="unknown" color="51,128,255" fill="1" layer="-1.00" shape="3462.817992,4867.021821 3460.929008,4859.772104 3455.105124,4862.348046 3393.379188,4889.645457 3388.389274,4891.852094 3327.116986,4919.961260 3265.224902,4947.987333 3229.518724,4962.290261 3185.724463,4975.624015 3107.240045,4999.550266 3035.969911,5039.280624 2972.078490,5079.666020 2907.670545,5120.547324 2839.821670,5163.338955 2778.860489,5201.713111 2714.381449,5242.433699 2649.846838,5283.373466 2603.535706,5313.787447 2592.992593,5319.116063 2618.418696,5391.930074 2643.207024,5462.917865 2648.463907,5478.796787 2685.839087,5566.464079 2708.216867,5620.418837 2746.083096,5691.996662 2782.785936,5760.040204 2819.509600,5828.626862 2943.219173,5750.789174 3082.551241,5662.830055 3202.658515,5587.196938 3161.088318,5524.554522 3118.870806,5457.123055 3183.502733,5416.595223 3247.420511,5376.275146 3316.181470,5332.840973 3410.292910,5273.384694 3546.253604,5188.600051 3526.413817,5110.877924 3504.746106,5027.472352 3492.767508,4981.688082 3483.322590,4945.713341 3462.817992,4867.021821"/>
    <poly id="116" type="unknown" color="51,128,255" fill="1" layer="-1.00" shape="7827.056737,16475.417060 7790.757980,16403.946355 7753.641777,16334.896644 7716.097728,16265.042370 7678.674594,16195.646312 7641.163594,16126.217323 7603.827273,16057.272066 7564.734334,15985.157599 7523.934336,15912.657838 7475.679132,15841.815543 7430.581808,15777.303762 7384.669914,15711.289191 7338.992998,15645.710205 7260.578538,15687.727982 7162.087319,15741.031853 7090.403210,15779.477857 7052.657260,15710.145221 6935.365181,15773.654069 6897.814870,15703.625487 6860.544306,15634.601360 6683.857623,15728.969769 6627.633027,15759.267973 6619.279309,15763.791517 6610.940327,15768.261399 6447.327676,15857.104279 6444.428987,15858.710680 6441.154695,15860.122089 6392.777373,15880.419191 6378.018550,15883.329922 6351.517173,15888.005077 6330.016298,15891.798123 6324.161968,15893.084953 6318.229670,15894.368083 6124.888735,15933.130186 6122.999755,15935.704978 6122.397084,15936.824932 6121.975798,15937.911785 6121.809557,15938.550797 6121.764550,15938.816252 6122.702424,15943.010876 6120.815086,15943.963193 6165.251615,16034.464091 6166.973789,16033.622879 6309.974575,16326.305282 6336.294734,16313.655749 6388.239683,16419.043888 6398.187473,16414.389564 6397.923881,16413.915624 6396.255656,16410.909334 6496.766050,16361.407237 6524.915769,16417.805287 6538.101988,16411.644277 6544.460768,16424.231888 6553.041531,16440.290003 6560.344361,16453.551356 6564.944810,16461.480987 6568.839684,16467.456012 6571.580448,16471.101504 6577.844966,16478.806216 6580.202275,16481.975359 6581.168011,16483.381003 6584.058595,16487.916001 6586.708595,16492.593122 6616.619204,16549.835156 6667.167614,16660.629134 6719.157187,16764.465367 6731.318407,16786.881949 6735.267211,16792.953640 6772.432631,16864.596160 6780.742544,16879.249267 6796.840874,16909.979122 6803.983234,16924.318193 6814.086572,16946.269138 6822.078646,16963.902529 6825.051076,16974.215156 6825.629490,16976.972804 6830.014710,16997.880227 6832.498860,17009.725865 6834.957005,17018.336933 6857.438236,17056.576632 6877.183948,17102.454368 6891.968134,17127.093304 6899.302518,17141.541679 6914.147993,17145.816910 6924.454893,17148.785233 6931.182739,17148.497051 6936.932034,17147.824877 6942.590843,17146.231781 6948.249665,17144.637801 6950.163712,17143.700827 6961.703728,17138.051904 6980.552328,17121.853901 7005.117376,17106.009965 7057.187953,17083.972615 7258.042313,16969.289154 7266.666041,16964.837657 7275.545580,16960.054063 7508.088424,16834.795735 7644.888059,16761.267472 7731.605829,16714.242211 7746.505266,16706.267497 7792.782875,16681.452123 7846.116536,16652.455766 7876.434351,16636.171477 7850.456709,16552.305460 7827.056737,16475.417060"/>
    <poly id="12" type="unknown" color="51,128,255" fill="1" layer="-1.00" shape="1537.933014,2694.893434 1559.936368,2691.483125 1570.491730,2694.919612 1579.783868,2692.254713 1596.847098,2687.417033 1602.485867,2680.566034 1612.215237,2678.076716 1621.836610,2675.198184 1634.557968,2670.729325 1647.019566,2665.580461 1653.880446,2664.662368 1655.485131,2661.477884 1656.541014,2658.071863 1657.018995,2654.538012 1656.905811,2650.973880 1646.401615,2559.076812 1643.744183,2509.294951 1664.314094,2465.790778 1689.693251,2412.115233 1699.994251,2305.074824 1700.883424,2295.834492 1701.492099,2291.462466 1702.099771,2287.089541 1669.188531,2281.505203 1686.841956,2270.012033 1675.523227,2221.106742 1674.482592,2216.566557 1675.622288,2216.302722 1672.659812,2203.496088 1671.892988,2203.673237 1671.027395,2195.405456 1668.899560,2188.755848 1665.202864,2172.128019 1657.656321,2173.131810 1657.640141,2174.553291 1668.279165,2219.899177 1669.373843,2219.642623 1670.387425,2223.963106 1658.745969,2231.190785 1657.716386,2229.854431 1658.147074,2229.523399 1656.582603,2227.490991 1656.355890,2227.650463 1652.225296,2220.235197 1645.564655,2209.197203 1636.284999,2193.818332 1634.997589,2194.595416 1634.237528,2193.649061 1634.429538,2190.920849 1630.262378,2181.276959 1627.014184,2182.680603 1627.318386,2185.901291 1628.438875,2186.275813 1632.176653,2193.763532 1632.191014,2195.312299 1636.853379,2201.950714 1641.740824,2208.909714 1641.809809,2209.965152 1642.439384,2210.692135 1642.974015,2210.801221 1648.701100,2220.773936 1649.748261,2222.134632 1649.916366,2222.913348 1655.798434,2233.062750 1628.621368,2250.077054 1621.905170,2238.565494 1617.982653,2232.899223 1614.589594,2226.999090 1610.696193,2220.804326 1604.787691,2212.281139 1599.091273,2204.096225 1593.341533,2194.277198 1590.775288,2196.025635 1595.949894,2205.694160 1597.057115,2205.562808 1598.234614,2207.593675 1599.533298,2207.512469 1601.658400,2210.707870 1601.028578,2211.229580 1603.207114,2213.944677 1603.721155,2215.248231 1605.343082,2216.275388 1605.809714,2217.433481 1605.275926,2217.956284 1604.179641,2217.126958 1603.746681,2217.218019 1608.407844,2223.517510 1613.879006,2232.516577 1621.613744,2245.192567 1623.624227,2248.001740 1626.029531,2251.969211 1614.363396,2259.523466 1612.886413,2258.497828 1596.477000,2269.167292 1586.425481,2252.444696 1540.674329,2297.797556 1530.783758,2307.776787 1520.772337,2320.325665 1503.179203,2338.985737 1501.232778,2340.653163 1492.180224,2352.398117 1479.533703,2368.352163 1468.985537,2381.511818 1467.488748,2383.631202 1442.951196,2416.888558 1436.260385,2426.062198 1427.022618,2440.686276 1415.584302,2457.966766 1414.914065,2457.294224 1405.734901,2471.647163 1406.247086,2471.974904 1402.152657,2477.366974 1400.008773,2480.832695 1393.124561,2491.887571 1389.534169,2498.328073 1384.895171,2506.861254 1380.859893,2515.843944 1377.805876,2523.730256 1375.965420,2529.691911 1374.170953,2536.539676 1373.393768,2536.476892 1371.449766,2544.430689 1370.327089,2550.566342 1369.569340,2555.146815 1369.338779,2556.822186 1368.213188,2568.433832 1369.096007,2568.516957 1368.664053,2575.030406 1368.805169,2582.122166 1369.442979,2589.330745 1370.065452,2593.048894 1371.250862,2599.313879 1370.333266,2600.348024 1370.249042,2601.601804 1371.138800,2603.006537 1371.972367,2603.294061 1372.600689,2603.162206 1377.151191,2621.018521 1414.124609,2632.384682 1437.782747,2671.767480 1444.993805,2683.771421 1451.067372,2684.023585 1451.084368,2690.173849 1456.027793,2690.239510 1465.084103,2690.372757 1477.302561,2694.813477 1483.739433,2695.765944 1490.617478,2696.577033 1519.591458,2700.130700 1538.018714,2700.395002 1537.933014,2694.893434"/>
    <poly id="120" type="unknown" color="51,128,255" fill="1" layer="-1.00" shape="9159.319429,19884.002432 9172.672029,19662.185693 9176.857342,19659.438087 9189.143882,19660.205980 9238.709080,19663.303655 9236.305540,19654.983875 9229.342876,19653.427757 9228.438613,19650.330002 9230.332987,19649.009230 9233.427733,19648.373466 9228.667806,19642.009820 9224.266164,19639.543276 9222.019679,19636.430209 9218.110399,19637.862153 9214.779354,19635.676329 9213.813854,19635.034263 9212.962519,19634.247054 9212.246941,19633.334644 9211.685280,19632.320263 9211.291795,19631.229573 9211.076489,19630.090183 9211.973386,19599.265674 9214.267218,19596.271866 9211.787744,19592.014633 9212.016498,19565.737057 9215.051853,19532.909119 9219.163675,19530.905641 9220.640618,19529.941647 9210.586927,19513.726562 9188.369930,19476.783325 9175.940540,19455.413473 9169.230095,19443.876219 9150.092552,19410.773197 9126.747311,19370.109912 9111.062340,19342.315056 9077.793573,19281.924948 9042.256019,19215.263356 9023.361263,19177.967105 8998.351000,19129.282597 8994.376835,19123.771445 8993.457643,19120.659703 8990.183202,19114.894532 8987.144021,19109.372184 8984.112915,19103.132887 8983.424373,19100.739591 8982.009278,19099.291809 8978.273351,19092.089744 8973.377594,19082.012284 8971.758983,19077.459834 8967.551648,19069.776395 8961.257096,19056.818561 8955.890233,19046.138630 8952.379665,19040.133010 8951.464114,19036.782216 8943.534539,19020.704357 8941.663415,19017.341853 8935.605013,19004.625495 8934.037883,19001.413843 8925.962856,18984.863986 8923.799826,18982.016996 8922.592878,18977.925060 8911.558977,18955.374247 8894.325888,18921.083292 8892.852302,18918.151103 8873.214785,18879.976639 8855.100847,18845.739503 8837.897264,18814.179345 8821.948114,18782.633380 8810.604878,18759.765108 8798.322711,18736.729121 8788.512901,18716.857648 8777.780355,18695.408055 8751.394635,18643.983474 8737.872024,18617.671072 8731.368807,18605.212511 8716.989043,18577.512323 8714.485327,18571.980546 8711.772214,18566.262021 8708.895017,18560.729272 8643.367001,18434.719929 8640.093220,18428.106165 8635.520739,18418.954582 8631.595594,18411.254028 8616.004438,18380.843890 8611.182627,18371.639002 8607.704216,18365.176793 8603.838414,18356.660539 8599.838866,18347.938892 8595.312147,18337.502604 8590.917548,18327.477752 8585.474908,18313.546712 8580.829844,18301.469510 8576.592582,18289.669871 8572.218335,18277.868612 8566.415512,18259.493534 8562.333317,18246.015147 8558.659024,18232.719188 8552.238344,18208.733374 8547.916072,18192.287763 8544.113677,18178.306522 8540.449150,18164.149938 8538.471538,18157.841866 8537.695524,18154.007843 8533.763881,18139.342291 8529.955148,18125.907983 8528.120683,18118.986598 8525.763238,18109.696725 8522.105705,18095.279311 8521.034913,18093.354599 8519.702674,18090.333040 8519.080751,18084.997118 8512.204042,18064.969311 8505.627330,18049.577749 8485.404558,17997.233828 8460.262888,17936.325748 8435.266288,17875.132399 8408.452820,17810.197198 8356.573052,17683.956101 8343.189422,17646.268890 8331.760801,17619.226598 8326.118246,17605.635333 8318.034538,17586.505390 8310.654121,17568.384340 8305.649071,17555.445153 8301.671552,17546.452872 8296.392019,17532.507754 8287.612185,17511.651315 8276.354137,17488.405171 8265.349471,17461.798614 8256.727239,17439.655401 8249.569041,17420.893915 8241.766035,17399.328782 8234.750160,17378.264547 8232.479783,17370.982334 8228.518463,17357.863145 8208.502829,17346.100636 8202.336169,17342.476717 8196.249007,17345.421598 8191.741917,17347.367701 8186.975133,17333.421562 8178.397648,17308.326325 8170.025013,17299.089924 8149.678963,17276.644757 8114.839123,17240.540415 8050.766605,17174.529146 8008.201410,17132.302002 8003.799389,17129.237475 7984.019315,17108.097551 7929.032366,17049.328338 7893.412019,17011.046439 7877.687755,16988.826504 7873.194434,16982.427750 7868.700276,16976.027879 7861.259815,16960.663223 7850.144648,16940.227067 7846.835386,16933.190064 7840.227617,16919.138732 7831.564600,16897.505805 7824.195146,16875.440787 7820.520310,16860.089461 7815.475902,16844.985355 7809.104567,16830.339047 7801.465544,16816.300032 7792.668815,16803.054724 7782.807256,16790.698068 7776.463227,16782.762380 7771.019287,16774.021441 7766.634004,16764.675459 7763.393264,16754.902667 7761.343629,16744.925566 7754.142269,16715.193709 7746.505182,16706.267496 7731.605744,16714.242210 7728.418083,16811.174445 7728.415242,16825.523093 7730.046913,16839.966450 7733.329485,16854.222491 7738.214882,16868.012073 7744.594377,16881.071976 7752.301464,16893.175031 7785.141856,16962.201886 7789.199596,16974.839376 7794.628278,16987.111533 7801.374174,16998.809873 7809.341653,17009.732173 7818.356176,17019.667819 7828.285758,17028.520180 7883.418365,17092.006849 7890.780075,17099.386303 7897.712619,17107.170470 7904.193700,17115.334319 7910.202638,17123.851732 7915.720117,17132.695381 7920.728519,17141.836962 7925.211756,17151.247303 7929.155438,17160.896140 7932.547126,17170.752567 7935.375732,17180.785139 7944.470136,17208.965507 7974.449676,17298.166385 8003.692535,17384.923136 8030.771403,17465.667719 8055.821486,17538.901790 8068.364212,17564.338032 8079.017982,17581.044958 8090.839742,17597.035095 8103.753781,17612.189175 8117.667341,17626.396606 8132.473532,17639.564721 8143.169432,17653.727443 8152.503195,17669.498375 8160.127764,17686.634478 8165.789918,17704.900956 8169.260192,17723.899209 8170.421056,17743.240993 8169.250268,17762.517127 8165.818429,17781.317676 8160.293867,17799.260429 8152.927380,17816.010476 8143.986942,17831.380782 8131.731910,17861.931875 8117.783976,17908.622862 8114.849138,17920.322611 8113.500147,17932.522370 8113.836356,17944.851410 8115.843774,17956.940622 8119.424994,17968.499825 8154.597517,18035.447858 8193.273741,18107.592838 8231.149349,18175.963538 8272.085482,18251.678540 8311.910539,18325.834237 8318.675352,18338.353842 8350.027303,18396.376238 8386.715897,18464.859403 8393.718860,18477.235547 8398.136824,18486.000935 8405.205787,18498.817669 8407.544796,18503.059506 8410.237766,18507.292224 8412.709083,18512.036402 8415.179399,18516.779459 8420.531582,18527.071201 8425.883833,18537.362948 8463.522808,18607.279604 8482.659769,18642.194258 8505.515593,18684.478407 8527.213599,18724.939000 8604.726259,18686.097933 8664.293207,18812.675124 8673.858977,18827.912843 8684.890430,18842.278629 8697.257813,18855.565725 8710.795347,18867.597577 8725.308602,18878.230919 8789.254484,18973.887230 8821.713902,19056.219057 8824.602457,19141.570477 8768.369406,19172.747063 8805.978683,19242.886521 8842.245223,19310.143382 9015.888258,19637.008674 9017.432511,19655.779092 9017.296800,19674.843087 9015.428799,19693.973412 9011.821063,19712.932935 9006.507413,19731.487918 8999.562228,19749.410454 8991.102010,19766.494912 8981.272804,19782.560118 8972.089501,19790.302404 8961.195247,19797.193339 8948.651373,19802.768814 8934.672635,19806.543292 8919.651517,19808.076378 8904.142730,19807.047466 8888.811702,19803.332154 8874.348962,19797.034501 8861.367555,19788.487102 8850.320635,19778.193345 8841.459517,19766.742742 8834.828257,19754.722822 8830.308244,19742.650839 8827.664626,19730.933376 8809.059551,19797.415653 8810.747570,19815.856700 8814.480913,19834.396084 8820.304631,19852.692401 8828.186657,19870.396418 8838.018892,19887.165856 8849.619773,19902.689845 8862.742737,19916.706567 8877.097896,19929.016625 8892.366710,19939.495658 8908.464897,19953.160361 8923.612415,19968.475835 8937.568605,19985.345417 8950.105960,20003.624416 8961.023679,20023.128722 8970.151380,20043.634294 8977.363947,20064.889781 8982.582448,20086.624413 8985.779139,20108.558947 8986.977208,20130.419651 8986.358769,20148.640926 8986.246432,20151.948356 8983.510614,20171.951481 9004.963890,20186.637210 9010.510808,20175.936540 9015.948442,20165.446482 9058.839321,20083.099222 9158.898701,19890.994031 9159.319429,19884.002432"/>
    <poly id="125" type="unknown" color="51,128,255" fill="1" layer="-1.00" shape="2603.535705,5313.787558 2649.846838,5283.373466 2644.696438,5275.093824 2619.627681,5234.798101 2569.125864,5153.867631 2518.560883,5083.675891 2494.111844,5001.513547 2474.270574,4934.632971 2449.850230,4852.313939 2432.720008,4791.247879 2410.467542,4719.168068 2385.665798,4630.746282 2383.914000,4622.778344 2383.526975,4614.448061 2384.582706,4606.112025 2387.036864,4598.141988 2390.720896,4590.862666 2339.251911,4637.880830 2306.320282,4670.431901 2192.752699,4774.417600 2168.597307,4796.577862 2154.393886,4810.527711 2135.303200,4827.070238 2112.366561,4848.076834 2106.145066,4853.775457 2048.639372,4906.442539 1986.933333,4961.769048 1921.040856,5025.822527 1911.712873,5026.200170 1903.115531,5026.071250 1902.167473,5018.457315 1891.052713,4956.609930 1877.167344,4857.396218 1869.975771,4858.124151 1857.131300,4859.437819 1825.582117,4862.664365 1839.950387,4963.865388 1849.855775,5033.633007 1849.925062,5034.120866 1824.029844,5045.579642 1793.763957,5051.483347 1641.519918,5069.980486 1585.509663,5076.661728 1552.946782,5080.515829 1549.429696,5085.165611 1550.637334,5095.085874 1551.981738,5109.334648 1554.148015,5123.917762 1555.706950,5133.196177 1624.796611,5124.443486 1700.060585,5115.619962 1790.737006,5105.359546 1858.600696,5098.120412 1869.782835,5296.077038 1901.792021,5292.437074 1913.115204,5291.149662 1921.814595,5290.522034 1928.685431,5394.815591 1939.530442,5393.542486 2040.567788,5382.187255 2104.576210,5374.885344 2231.638567,5360.442350 2381.871432,5343.517977 2566.740585,5322.223207 2592.992593,5319.116063 2603.535705,5313.787558"/>