<?xml version="1.0" encoding="UTF-8"?>

<!-- generated on 2025-09-19 16:18:30.556863 by edgesInDistricts.py UNKNOWN
  options: -n osm.net.xml.gz -t taxi_zones.poly.xml -o taxi_zones.taz.xml <doubleminus>complete <doubleminus>vclass taxi
-->

<tazs xmlns:xsi="http://www.w3.org/2001/XMLSchema-instance" xsi:noNamespaceSchemaLocation="http://sumo.dlr.de/xsd/taz_file.xsd">
    <taz id="100" color="51,128,255" edges="-1136952921#0 -167922072#1 -167922076#1 -195743208#2 -195743208#4 -384649121#2 -384649121#4 -525729008#2 -525729008#4 1027181005#1 1049920716#1 1049920717#1 1049920718#1 1051750425#1 1051750426#1 1051750427#1 1051750428#0 1070126888#3 1124078896#1 1124078897#1 1124078898#1 1124078899#1 1135620537#1 1135620538#1 1207834767#0 125479721#1 1376929274#1 167922070#1 194926854#0 195743209#1 195743344#1 195743345#1 35027229#1 36806906#4 420904657#1 420907902#0 464543614#1 464543615#1 46481747#1 46522005#1 500717399#1 542257008#1 542257009#1 542257430#1 542257982#1 542258060#1 542258061#2 5673323#1 5673323#2 5673323#3 5673323#4 5673323#5 5673561#1 569345545#0 569345546#1 700951338#1 700951339#1 713102051#0 803047266#1 803047267#1 958919324#1 963613972#1"/>
    <taz id="107" color="51,128,255" edges="-1080982430#0 -1080982431#1 -1080982432 -1088320647#1 -1088320649#1 -1088320650#2 -1088320651#1 -1088320653#1 -194926839 -195743164#1 -420872201#0 -438388090#1 -438389786#2 -489019753 -489019754#3 -5670254#13 -5670254#3 -5670254#8 -5671774#13 -5671774#18 -5671774#3 -5671774#8 -616745173#3 -616745176#3 -630828555#3 -630828594#3 -814612602#1 -814612602#11 -814612602#16 -814612602#21 -814612602#6 1023167223#1 1027227118#0 1032031974#1 1037772578#1 1037772579#1 1040863519#0 1049948413#1 1050175622#0 1051841855#6 1051841856#1 1051841857#1 1051841858#1 1051856442 1088320646 1088320647#1 1088320648#1 1088320649#0 1088320650#1 1088320652#1 110489638#1 1271746675 1271746676#0 1316060544#0 1316060557#1 1316060558#0 1316061296#0 1316299815#1 1316299823#1 1316299824#3 1316299834#1 1328728620#1 157014136#1 194923808#1 194926839 195745914#1 196117051#1 196117051#5 221157083#1 226040991#1 22897633#1 22897633#10 22897633#14 22897633#4 22897633#7 22897633#9 22902609#1 22902609#2 22902610#1 335935797#0 335935798#1 335935799#0 34079830#1 34079834#1 378363223#1 409716177#1 420519634 420519635#1 420520113#1 420520113#5 420598230#1 420598230#4 420598236#1 420598238 420598241#1 420598256#1 420598266#1 420598270#0 420598294#1 420598310#1 420872176#0 420872179#0 420872180#1 420872181#1 428569470#1 451808492#1 451808492#5 451808493#2 451808493#3 451808493#4 451808494#1 451808494#4 456308944#0 456308945#1 46334599#1 46334599#12 46334599#5 46334599#9 464683318#1 489019754#1 496986905#0 525768549#1 543902512#1 543902513#1 543902513#5 5670254#1 5670254#11 5670254#6 5670522#1 5670522#5 5670551#2 5670551#6 5670581#0 5670581#1 5670581#2 5670673#0 5670673#3 5670736#0 5670736#4 5670736#5 5670770#0 5670778#0 5670778#1 5670778#2 5671472#1 5671774#1 5671774#11 5671774#16 5671774#6 5672706#1 5672937#1 5672937#5 5672948#1 5673523#1 5673613#1 5673613#2 616745173#1 616745174#1 616745175#1 616745175#4 616745176#1 630828554#1 630828555#1 663499005#1 813972136#1 814612602#14 814612602#19 814612602#4 814612602#9 814612603#1 847952488#2 871693849#1 871725893#1 923091016#0 939122872 954178925#0 954178926#1 954955253#0 954955254#1 954955255#0 954955256#1 954955257"/>
    <taz id="113" color="51,128,255" edges="-1067449180#0 -1067449185#0 -1067449185#1 -1080982434#1 -1080982435#0 -352705236#0 -420526338#2 -5672434 -666752576#2 1027206709#1 1027206709#4 1027206710#0 1027206711#1 1027206712#0 1027206713#0 1032454983#0 1050255674#1 1050255675#1 1050255675#2 1050255676#0 1050255677#0 1050255677#1 1062029895#1 1067449180#0 1067449180#1 1067449185#1 1080982433#0 1135428602#1 1149701654#3 127693102#1 1315845433#0 1315847472#1 1315847472#5 1315847473#0 1315848405#1 1315848405#2 1315848405#4 1315848405#6 1315848405#7 1423395724#0 195743341#1 195743341#4 24264070#1 25199883#1 25199883#4 25199883#7 420358896#5 420358897#0 420522444#1 420522695#1 420526338#1 421825692#1 421825692#10 421825692#4 421825692#7 421825692#9 433124968#15 433124968#16 439933929#1 439933946 451904646#1 451905565#1 451905565#4 46139037#1 46139037#3 464522037#1 464522037#10 464522037#4 464522037#7 496979224#0 496979224#1 497746843#1 497746843#4 558008153#2 558008153#3 558008153#4 5668989#1 5669806#1 5669962#1 5669962#5 5669962#9 5670172#1 5670172#4 5670172#7 5670651#1 5670651#3 5670651#4 5670924#1 5671429#1 5671429#4 5671429#7 5671663#1 5671663#2 5671663#6 5671743#1 5671743#2 5671743#4 5671799#1 5672607#1 5672607#3 5672607#4 5672873#1 5672873#3 5672873#4 5672896#1 5672896#12 5672896#15 5672896#16 5672896#5 5672896#9 5672910#1 5672910#4 5673089#0 5673089#3 646635889#4 646635889#5 653471090#0 653471090#1 653471091 653534688#0 666752576#1 68668558#1 68674966 727649620#2 848051758#1 889114527#1 905095202#0"/>
    <taz id="114" color="51,128,255" edges="-1232833559#0 -317400962#1 -317400962#2 -481047237#1 -5672138#1 -5672138#4 1049837953 1049837954 1049854215#1 1113542902#1 1202571928#1 1205533070#1 1296083557#0 1296083558#1 157012386#1 157012386#10 157012386#13 157012386#14 157012386#17 157012386#20 157012386#21 157012386#23 157012386#24 157012386#25 157012386#4 157012386#7 157012387#1 157012398#1 157012398#4 25199883#10 25199883#13 25199883#16 317400962#1 317400962#2 349873702#1 352705238#0 352705238#3 352705238#6 386211349#1 40709927#0 420352244#0 420352247#0 420352248#0 420352249#1 420352250#1 420352251#0 420352251#2 420355076#1 420358892#0 420358896#1 420358898#1 420358898#4 420358898#5 421825693#0 433124968#1 433124968#10 433124968#13 433124968#4 433124968#7 433124968#9 433394637#0 433394637#2 433398367#1 439933947#1 439933948#1 46139045 464522037#13 464522037#16 464522037#19 481047237#1 481403101#1 524387551#1 524387551#4 524388531#1 524388532#1 5669978#4 5670092#1 5670171#1 5670488#1 5670498#1 5670594#1 5670594#5 5670594#9 5670814#11 5670814#14 5670814#17 5670897#1 5671608#1 5671608#4 5671608#7 5671754#3 5672040#1 5672040#4 5672138#1 5672138#4 5672625#1 5673093#1 5673093#5 5673309#1 5673309#4 5673619#0 5673619#1 588293370#2 653428657#1 663797741#0 706833045#0 706833045#2 706833046#1 706833046#4 706833046#7 706833047#1 727644280#1 727644280#4 727649619 729972920#1 729972920#2 846137635#1 846137635#4 847931436#16 847931436#17 847932924#5 847942275 957085297 957085298"/>
    <taz id="116" color="51,128,255" edges="-1013655882#1 -1013655882#11 -1013655882#14 -1013655882#17 -1013655882#20 -1013655882#23 -1013655882#26 -1013655882#29 -1013655882#4 -1013655882#7 -1013655882#8 -1092553225#0 -1123880569#0 -1123880569#1 -1193079854#1 -1193079855#0 -1321794648#0 -1322053462#0 -1379309952#1 -165426549#0 -165473832#1 -165473832#10 -165473832#4 -165473832#7 -196116967#1 -196116967#10 -196116967#13 -196116967#16 -196116967#4 -196116967#7 -196117076#1 -196117077#0 -196117077#1 -226007074 -234726497#5 -243046572#0 -243046572#1 -243046573#1 -243046573#12 -243046573#13 -243046573#14 -243046573#17 -243046573#18 -243046573#2 -243046573#3 -243046573#4 -243046573#7 -243046573#8 -243046573#9 -243046578#0 -243046578#1 -243046578#2 -420590040#0 -420590041#1 -420590043#1 -420590044#1 -420590046#1 -420590047 -420590053 -420590057#0 -420590059#0 -420590061#1 -420590063#1 -420590063#3 -420590063#4 -420590064#1 -420590064#2 -420590064#4 -420590065#0 -420590067#0 -440887371 -455098896#1 -455098897#1 -455098897#4 -455685737#1 -455687907#11 -455687907#14 -455687907#17 -455687907#20 -455687907#23 -455687907#8 -46111601 -46114489 -46240053#0 -569361676#0 -620748646 -620748647 -630828565#1 -68668550#1 -727135244#1 -727135244#10 -727135244#4 -727135244#7 -850678169 -955268214#0 -955268214#1 -955268214#2 1003912526#1 1013655882#11 1013655882#14 1013655882#17 1013655882#20 1013655882#23 1013655882#26 1013655882#29 1013655882#4 1013655882#7 1013655882#8 1028897920#0 1028897920#3 1028897921#1 1028897921#4 1028897922#1 1028897922#4 1028897922#7 1038856010 1039008582#2 1039008583#1 1051266487#1 1051266488#0 1051266488#3 1051266489#1 1051266490#1 1051525736#0 1051525736#1 1051525737#0 1051525737#12 1051525737#3 1051525737#6 1051525737#9 1051525738#1 1051525739#1 1051525740#0 1051525741#2 1051525742#1 1053644745#1 1053644745#2 1053644746#1 1053644747#1 1092553225#0 1098148715#1 1123880569#1 1193079853#1 1193079854#1 1254486598#1 1346822578 1379309952#1 1379314801 1385809308#1 1387914881 1387914884 1409542755 1409542756 1409542757#2 1409542759#1 1409542759#2 1409542759#5 1409542759#7 165426549#0 165473832#1 165473832#10 165473832#4 165473832#7 195743146#1 195743146#10 195743146#4 195743146#7 196116967#1 196116967#10 196116967#13 196116967#16 196116967#4 196116967#7 196117053#1 196117053#3 196117053#6 196117053#7 223503127#1 223503127#4 223503127#7 234726492#1 234726492#3 234726492#4 234726492#8 234726497#1 234726497#2 234726497#5 243046572#0 243046572#1 243046575#0 243046576#2 243046578#0 243046578#1 243046578#2 243056524#0 243056524#3 243056525#1 243056525#10 243056525#13 243056525#4 243056525#5 243056525#7 254594899#1 254594900#1 254594900#2 420590040#0 420590041#1 420590042#1 420590043#1 420590044#1 420590046#1 420590047 420590057#0 420590059#0 420590061#1 420590063#1 420590063#3 420590063#4 420590064#1 420590064#2 420590064#4 420590065#0 420590067#0 440122909#1 455098896#1 455098897#1 455098897#4 455098897#7 455684726#0 455684727#1 455684728#0 455684728#1 455684729#0 455687907#14 455687907#17 455687907#20 455687907#23 46111601 46114489 46114491 46114494 46114496#0 46114496#1 46568326 46568381#1 46568381#1-AddedOnRampEdge 46577970#0 46577970#1 46577970#2 524558206#1 524558206#10 524558206#13 524558206#16 524558206#19 524558206#20 524558206#4 524558206#7 5669683#1 5669683#3 5669683#4 5670203#1 5670203#2 5670203#5 5670252#1 5670252#11 5670252#3 5670252#4 5670252#7 5670252#8 5670405#1 5670656#1 5670656#2 5670688#1 5670774#12 5670774#2 5670774#6 5670774#9 5670828 5670831#0 5670831#1 5670851#5 5670988#1 5670988#2 5670988#3 5671119#1 5671119#11 5671119#12 5671119#13 5671119#14 5671119#15 5671119#4 5671119#5 5671119#8 5671137#1 5671137#11 5671137#3 5671137#7 5671257#1 5671685#1 5671685#4 5671685#7 5671921#0 5671921#1 5671921#4 5671921#7 5672585#1 5672585#4 5672585#5 5672943#1 5673106#2 5673106#5 5673106#8 5673305#1 5673305#4 5673305#8 569361676#0 608355942#0 620748645#0 620748645#1 620748645#2 620748645#5 620748645#6 620748646 630828564#1 630828564#2 630828565#1 630828567#1 68668550#1 723323622#0 727135244#1 727135244#10 727135244#4 727135244#7 735173276#1 735173541#0 745617598#1 745617599#0 955268214#0 955268214#1 955268214#2 958209853#0 976860719"/>
    <taz id="12" color="51,128,255" edges="-1156810185#1 -1329583840#1 -584971522#0 1186021636#1 1186021636#2 165672323#1 420888140#0 47796374#1 584971522#0"/>
    <taz id="120" color="51,128,255" edges="-1095014325#1 -1249986892#1 -46593917#2 1001476490 1007846636 104144064 1081031900 1081031902 1081031903 1081036134 1081036136 1095014325#0 1146402202#1 1146402203#0 1146402204#0 1146402205#1 1146748992#2 1220611715 1220611718 122738258 1249986892#0 1249986894 1303990619 1303990900 1317558584 1370127640#0 1370127640#1 1392301909 164843933#0 164843960#1 164843960#2 196116966 196116968 196116969#1 196116969#4 196116969#5 196117019#0 196117019#1 196117019#12 196117019#4 196117019#5 196117019#6 196117019#7 196117019#8 196117019#9 196117023#1 196117023#2 303860528 33115927 33117567 33117574 33117579#0 33117579#1 420874482#0 420874485#1 420874486 440122878#1 440122879#1 440122879#10 440122879#13 440122879#4 440122879#7 46593911 46593917#1 46593920 49036327 538794277 5669597 5670333 5671236 5671964#0 5673054#1 5673054#3 584971408 620748647 68668563#1 734640621 734864200#0 734864200#1 734864205 734864207#1 8119530#1 8119542 8119547"/>
    <taz id="125" color="51,128,255" edges="-466956273#1 -5671028#0 -5671028#1 1003466060#1 1003466061#0 1003466061#3 1003466062#1 1003466063 1003466064#1 1003466064#2 1003466066 1015939516#1 1015939517#1 1015939517#4 1015939517#5 1049852135 1202586278#1 1202586279#1 1202586284#1 1202586284#2 1202586284#3 1202586285#1 1271546069#0 1314051814#0 1314051815 1342197776 1423395725 194923790#1 194923810#4 194923810#7 22946628 256902825#1 348488665#0 348488665#2 348488665#3 412876925#0 412876925#2 420809408#0 420809409#0 420809413#1 420809417#1 420809417#2 420809419#0 420809419#3 420809419#6 420809419#9 420809439#0 420809441 420809443#0 420809446#1 420809448#2 421832641#0 421832641#1 421832644#2 421832644#5 433394647#0 433394647#2 433442259 438370108#0 438370108#2 438901427#0 438901427#1 438901427#3 46116390#1 46139033#1 46139034#0 46139034#3 46139034#6 46139041#0 46139041#1 46139041#2 463035747 46350693#1 46350694#1 46350707#0 46350707#1 466956271#1 466956271#2 466956272#1 466956272#2 466956273#1 466956274#1 466956276#0 466956276#1 466956278#1 466956278#2 496980200#0 539024459#1 539024459#2 5669205#1 5669322#0 5669322#1 5669322#2 5669348#1 5669486#0 5669486#1 5669899#1 5669899#4 5669899#5 5669925#0 5669925#2 5670462#1 5670792#0 5671028#0 5671028#1 5671327#1 5672578#1 5672654#0 588157330 653406301#1 729972924#0 812936282#1 812936282#2 812936282#5 812936282#6 846035644#1 846035644#4 946653471#1 954310592 954496239#0 954496239#1 989381742#1"/>
    <taz id="127#0" color="51,128,255" edges="-104144064 -104315946#0 -104315947#0 -1106736160#0 -1106736160#1 -1133523764#1 -1180567731#0 -1207774834#0 -1249995305#0 -1249995306#1 -1249995307#0 -1269117781#0 -1269117781#1 -1269117782#1 -1269117783#0 -1269117784#1 -1269117785#0 -1269117786#1 -1269117787#0 -1269117788#0 -1312494949#1 -1312494949#2 -1322076723 -1322109678 -132500932#0 -132500932#1 -1349640014 -1378321485#1 -1379304936#0 -1381035964 -1381035965#1 -1381035965#4 -1381035966#0 -1418828020#1 -1418835656#2 -164842049#1 -164846390#0 -164846390#1 -164846390#2 -164846390#3 -164866814#1 -164866814#2 -164874889#1 -164875072 -164877022#1 -164877022#10 -164877022#13 -164877022#4 -164877022#7 -164877023#1 -165366872#1 -165366872#4 -165398358#1 -165398359#0 -193048149#1 -197469195#0 -197469195#1 -197469195#4 -197469195#5 -223879811#0 -223879812#0 -223879812#1 -223879813#1 -223902542#1 -223902543#0 -223902543#1 -223902543#2 -223902543#4 -223902549#1 -223902550#0 -226007078#1 -308329352#1 -308329352#4 -308329352#7 -308329353#1 -326119844#0 -326119844#1 -326119844#2 -326119844#4 -326119844#5 -326119844#6 -326119844#7 -420863271#0 -421840992#0 -440122891#1 -440122904#0 -46334565#1 -46334608#0 -46616995#0 -46616995#3 -46616995#6 -46616995#7 -47845042#1 -489170297#1 -490896832#1 -490899140#1 -490899141#0 -520349854#0 -520349854#10 -520349854#11 -520349854#3 -520349854#6 -520349854#7 -5669846#1 -5670131#1 -5670642#1 -5670642#4 -5670642#7 -5671259#1 -5671259#2 -5671259#3 -5671259#4 -5671259#5 -5671345#1 -5671345#4 -5671397#0 -5671397#2 -5671397#3 -5671397#5 -5671397#6 -5671432#2 -5671456#0 -5671456#3 -5672493 -5672722#0 -5673033#1 -5673547#1 -584971404#1 -586133544#1 -586133544#4 -586133545#1 -586133545#4 -623836435#1 -623836438#1 -623836443 -690415944#0 -734640621 -734864200#0 -734864200#1 -799505584 -833386644#0 -833386644#1 -902816136#1 -902816136#2 -902816137 -925874376 -939682424#0 -939682424#1 1038355662#1 104169857#1 104169857#2 104169857#3 104315946#0 104315947#0 1080324895 1106736160#1 1133523764#1 1180567731#0 1207774833#0 1207774833#1 1249995305#0 1249995305#1 1249995306#1 1249995307#0 1312494949#1 1312494949#2 1322076722 1322100802#1 1378321485#1 1379304936#0 1381035964 1381035965#1 1381035965#4 1381035966#0 141125506 1418828020#1 1418835656#2 1418837295#0 1418837295#1 164842046#0 164842046#1 164842049#1 164842051#0 164842051#1 164843942#1 164845825#0 164845825#1 164845829#1 164845829#2 164846390#1 164846390#2 164846390#3 164866814#1 164866814#2 164866814#3 164873888#0 164873891#1 164874889#1 164875072 164875073#1 164875073#2 164875073#3 164877022#1 164877022#10 164877022#13 164877022#4 164877022#7 164877023#1 165366872#1 165366872#4 165398358#1 165398359#0 165399196#1 165409451 193048148#1 193048149#1 197469195#0 197469195#1 197469195#4 197469195#5 223879808#1 223879811#0 223879812#0 223879812#1 223879813#1 223879815#1 223902542#1 223902543#0 223902543#1 223902543#2 223902543#4 223902549#1 226007078#1 308329352#1 308329352#10 308329352#4 308329352#7 308329353#1 326119844#1 326119844#2 326119844#4 326119844#5 326119844#6 326119844#7 420863273#1 420863274#1 420863275#1 440122904#0 46334565#1 46334608#0 46616995#0 46616995#3 46616995#6 46616995#7 47845025#1 47845042#1 489170297#1 490896832#1 490899140#1 490899141#0 520349854#0 520349854#10 520349854#11 520349854#3 520349854#6 520349854#7 5669652#1 5669846#1 5669878#1 5669878#2 5669990#0 5670141#0 5670508#0 5670508#2 5670508#3 5670508#4 5670642#1 5670642#4 5670642#7 5670762#0 5670798#1 5670800#0 5670800#1 5670853#1 5670853#2 5670894#1 5671259#1 5671259#2 5671259#3 5671259#4 5671259#5 5671281#1 5671345#1 5671345#4 5671360#1 5671360#2 5671360#3 5671360#4 5671397#0 5671397#2 5671397#3 5671397#5 5671397#6 5671432#2 5671456#0 5671456#3 5671712#1 5671712#2 5672217#1 5672217#3 5672217#4 5672284#0 5672284#2 5672284#4 5672466#1 5672493 5672722#0 5673033#1 5673547#1 584971404#1 586133544#1 586133544#4 586133545#1 586133545#4 60858625#1 623836435#1 623836438#1 623836440 680889023#1 680889663#0 68668542 734864201#0 734864201#1 799505585#0 902816136#1 902816136#2 925874376 939682423#1 939682423#2 939682424#0 939682424#1 978740977 995588442 995588445#0 995588445#1"/>
    <taz id="128#1" color="51,128,255" edges="-132500852 -46616997#0 -46616997#1 -46616997#3 -5669990#0 132500932#0 132500932#1 1349640014 33145772#0 5670141#1 680889661 833386644#0 833386644#1 902816137 911200989 911200989-AddedOffRampEdge"/>
    <taz id="13" color="51,128,255" edges="-1015679930#0 -1203376569#1 -1203376570#1 -1203376571#0 -1231600246 -1231809467 -1233090489 -1329325953#0 -1329874868#0 -1329874868#1 -1331346903 -1332815418#0 -1332857274#0 -194923760#1 -195743195#0 -195743195#1 -195743197#1 -195743267 -196117059#1 -226040985#1 -226193905#1 -226193928#1 -22928102#3 -46160404#3 -46165807#1 -46165815#1 -46165819#1 -46165821#1 -5669013#0 -5670238#1 -5670238#2 -5671084#0 -5671307#0 -5671307#1 -5671307#3 -5671307#4 -5671307#5 -5671307#8 -5671713#1 -5671713#3 -584971510#0 -584971513 -770524298#2 -806341215#0 -806341217#1 -837515835#0 -993793442#1 1002798653#0 1015679930#0 1015679931 1021042405 1053554760#1 1053554762#0 1067728687#0 1067728687#1 1067728688#0 1068446964#1 1113267323 1203376569#1 1203376570#1 1203376571#0 1203376571#1 1203376572 1203376574 1227811498#1 1231588528#0 1231588528#1 1329370689#1 1329874868#1 1329888759 1331316308 1331346903 1331371889 1331371890 1417177339 157405685 194923760#1 195743195#0 195743195#1 195743197#1 195743197#2 195743225#0 195743225#1 195743227 195743267 196117045#1 196117059#1 222299240#1 222299273#1 226040985#1 226193904#1 226193905#1 226193928#1 22927946#1 22927946#2 22928102#2 351638330#0 351638330#1 420772654#1 420809421 420809425#0 438362422#0 438367286#3 46116181#1 46160404#2 46165807#1 46165810#1 46165815#1 46165819#1 46165821#1 46422586#1 475867321#1 495946403 5669829#0 5670238#1 5670238#2 5670618#0 5671084#0 5671140#0 5671140#1 5671140#3 5671140#4 5671140#5 5671140#6 5671140#7 5671307#0 5671307#1 5671307#3 5671307#4 5671307#5 5671307#8 5671457#1 5671457#4 5671457#5 5671458#0 5671458#1 5671713#1 5671713#3 5673532#0 584971513 614853315#0 75311776#0 75311776#1 770524298#1 806341215#0 806341215#1 806341216#0 806341216#1 806341216#2 806341217#1 837515833#0 978431658#0 978439270#0 993793442#0"/>
    <taz id="137" color="51,128,255" edges="-1088005912#0 -1088325194 -1090755974#0 -1090755974#2 -1242277191#0 -1242277191#1 -1242277191#2 -1424092635 -335935797#0 -335935798#1 -380096992#1 -420872197#1 -420872199#0 -420872199#1 -46201651 -47796678 -50603617#0 -556075523#1 -5672190#1 -587038129#1 -619277987#0 -619277987#1 -68668529#0 -699843297 -763971141#0 -763971141#1 -763971141#2 -829073006#0 -829073006#1 -829073006#2 -986157727 1027227121#1 1027227123#1 1027227127#1 1027227128#0 1027227129#0 1031400324#1 1032033403#0 1036554450#0 1051841855#1 1051841855#2 1057527156#1 1057527157#1 1088005912#0 1088325193#0 1090755974#1 1090755974#3 1136393331 118400729#1 1242277191#0 1242277191#1 1242277191#2 1266906638 1266906639 1268207913#0 1268207913#1 134485639 162041588#1 194923807#1 194923807#4 194926841 194926842 195745915#1 222299248#1 222299248#4 222299258#1 222299276#1 222299276#4 222299276#6 226040994#1 226040994#2 226040995#1 226040997#1 32939000 380093631#1 380093631#2 380096992#1 381474197#1 385668565#1 420872190#1 420872191#0 420872193#1 420872193#4 420872194#0 420872197#1 420872199#1 420872204#1 438384743 46201644 46201647#0 46201647#1 46201649 46201650#0 46201650#1 46201650#2 46201651 46201652 47796678 47796685 505034229 511973084#1 533464384 540356239#1 54369822#0 554083352 5669077 5669221 5669581#0 5671699#1 5671699#2 5671701#1 5672190#1 5672992#1 5673179#1 587038047 597821267#1 597821267#2 619277987#0 619277987#1 619277989#1 626226775#1 641914938#1 641914938#2 68668521 711924577 763971141#0 763971141#1 763971141#2 829073006#0 829073006#1 829073006#2 847994494#5 959157335 964198407 964198408 986157727 988994184"/>
    <taz id="140" color="51,128,255" edges="-1080871810 -1123882067 -1164741792 -161387757#1 -161387759 -195743169#1 -195743169#2 -420357621#1 -420357622#1 -440122912#0 -460657165#1 -46211834#1 -46211840#1 -46211840#4 -46211840#7 -46694758#1 -46694759#0 -46694763#1 -497154281#1 -497154281#10 -497154281#4 -497154281#7 -497253399#1 -5669709#1 -5669896#0 -584971454#1 -584971459#1 -584971463#1 -584971469#1 -584971474#1 -584971474#4 -584971474#7 -659714535#1 -68668522#1 -712156464 1032451923#0 1080862177#1 1080862179#0 1080862180#1 1080871809 1080871810 1080871811 1086267975#0 1164741792 161387757#1 161387759 169381965#1 195743168#1 195743169#1 195743169#2 195743311#0 264546995#1 32958722 32959280 32959299#1 32960688 32960689 336534277 34769042 34769061 34769158 420357249#1 420357621#1 420357622#1 421853949#1 421853952#1 421853956#0 421853960#0 421853961#1 421853964#1 421853968#1 421853972#1 421854002#1 421854004#0 421854006#1 440122912#0 460657165#1 460657166#0 460660844#0 460660844#1 46211822#1 46211823 46211827 46211831#1 46211832#1 46211838#0 46211840#1 46211840#4 46211840#7 46211846 46334591#4 46694755#1 46694757#1 46694758#1 46694759#0 46694760#1 46694761#1 46694762#1 46694763#1 489022291 496985155#0 497154281#1 497154281#10 497154281#4 497154281#7 497253396 497253397 497253399#1 5669606 5669709#1 5669879#1 5669896#0 5669966#0 5670458#1 5670507#20 5670572#1 5670733 5670818#20 5671300 5671422#1 5671475#1 5672524#20 5672769#1 584971454#1 584971459#1 584971463#1 584971469#1 584971474#1 584971474#4 584971474#7 659714535#1 68668524#0 712156464 873187988#1 961934931 964284482 968393463#1 968393464#1 968393465#1 968393467#1 968393468#1 968393469#1 968393470#1 968393472#1 968393474#1 968393476#1 968393477#1 968393480#1 968393481#1 968393482#1 987645701"/>
    <taz id="141" color="51,128,255" edges="-421851202 -46211835#0 -587061846#1 -587061846#4 1024556676#1 1024556677#0 1024556678#1 1024556679#1 1024556680#0 1024556681#1 1024556682#1 1024556683#0 1024556684#1 1024556685#1 1024556686#0 1024556687#1 1024556688#0 1030119884#0 1030119885#0 1030119886#1 1030119887#0 1030119888#1 1030119889#0 1030119890#0 1049828457 1049843664#1 1049843665#0 1059545194#1 1059826031 1080862172#1 1080862175#1 1080862176#0 1106470994#1 1106470994#2 1224480428#1 1224480429#1 1224480430#0 1224480431#1 1224480432#1 1224480432#4 1224480432#7 1224480434#1 1224480434#4 1224480434#7 1224480435#0 1229099859#1 1229099860#0 166030811#0 166030811#2 166030812#0 195743167#11 195743167#8 196117001#1 196117089#0 198595460#1 198595461#1 198595548#0 198595548#1 198595549#1 198924727#1 320584278#1 320584278#4 32947292#0 32947292#1 32947295#0 32947297#0 32947558 375165666#1 391864586#1 420806145#1 421853993#0 455678353#1 461593093#1 461593095#1 461593096#1 461593096#4 46211828#1 46211829#1 46211835#0 46334591#1 46419221#1 46420287#1 46522160#1 46694757#4 46694757#7 46694760#4 46694760#7 46694762#4 46694762#7 497251085#1 497251085#4 497251086#1 497251086#3 497251086#4 497251086#7 539018144 544616716 544616717 5669841#14 5669841#17 5670029#17 5670029#20 5670507#14 5670507#17 5670572#4 5670818#14 5670818#17 5671475#4 5671475#7 5671475#8 5671475#9 5672524#14 5672524#17 5672629#1 5673456 578474028#1 579565234#0 579565234#1 587061846#1 587061846#4 686125780#0 686125784 686125787#1 686125787#4 686125790#1 686125790#3 686125790#4 686125790#7 691480071#1 913911309 962813251#3 962829745 968393462#1 968393466#1 968393479#1 968393479#4 981274194#0"/>
    <taz id="142" color="51,128,255" edges="-1081893303#0 -1271523169#1 -1271523170#0 -1271523171#0 -1271523171#3 -1271523171#6 -1271523172#1 -1271523173#1 -1388437537#0 -195743214#0 -420898705#1 -46579577#1 -46579579#0 -47795999#1 -542215781#0 -542215781#3 -584971528#0 -587061855#1 -661227257#1 -661227257#4 -802292178#0 -809013919#0 1023818802#1 1024425027 1024425029#0 1024425034 1024458692#1 1024458693#1 1024458693#2 1024458694#0 1024458695#1 1024458696#1 1024458697#1 1024458697#5 1024458698#1 1025734017#1 1036561583#0 1036561583#1 1041021164#0 1041021164#1 1043341289#1 1043341291 1046481426 1046481427#0 1046481427#1 1046481428#0 1046481429#0 1046481429#1 1052660934#1 1052660936#0 1052660937#1 114654203#0 1161025023#1 1161025024#1 1211612936 1238342551#1 1306196863#2 1343181791#1 1387012390#3 1387012398#1 1416725020#0 1416725020#1 1416725020#2 1418279952 176910406#2 176910406#3 195743131#1 195743136#1 195743141#1 195743141#2 195743212#1 195743214#0 196116975#1 196116980#0 196116991#0 196117085#1 226015228#1 346613529#1 346613529#10 346613529#11 346613529#12 346613529#13 346613529#14 346613529#4 346613529#7 385667445#0 385667445#1 420276995#1 420276996#1 420276996#2 420898202#0 420898206#1 420898206#4 420898705#1 439801899#0 439801900#1 439801900#2 439801901#0 440947097#0 440947097#1 440947098#0 440947098#1 452322366#1 460065820 460065821#0 460065821#2 460065821#3 460065822#1 460067515#1 46334586#1 464988509#0 464988509#1 464988510#0 464988510#1 46525065#8 46525065#9 46579578#1 46579578#2 489022195#1 542215989#1 5669002#1 5669002#2 5669004 5669881#1 5669881#4 5669881#8 5669881#9 5670111#1 5670566#1 5670938#1 5671415#1 5671415#2 5671691#1 5672501#1 5672501#2 5672501#6 5672501#9 5672998#3 5672998#4 5672998#5 5672998#6 5672998#7 5672998#8 5673018#1 587061855#1 630828581#0 630828581#3 630828581#6 630828582#1 671202178#1 693838032 705223734#0 705223734#1 705223737#0 705223737#1 709355577#0 709355577#3 768381525#0 768381525#1 802292177#0 808055022#0 808055023#1 808055023#10 808055023#4 808055023#7 808190578#0 809013917#0 809013918#1 835176554#1 835176555#1 835176556#1 835176557#1 835176557#2 835176557#3 835176558#1 907627764#0 907627765#1 91383966#1 938601996#1 938601999#0 993368837 993368838#0 993368838#1 993368839#0 993368839#1 993368839#10 993368839#13 993368839#2 993368839#3 993368839#4 993368839#7"/>
    <taz id="143" color="51,128,255" edges="-154716101#0 -154716101#1 -154716101#2 -154716101#3 -154716101#4 -154716101#5 -154716105#1 -154716105#2 -169381957#1 -169381959#1 -195743193#0 -195743193#1 -195743193#3 -195743193#6 -195743213#0 -195743215#1 -195743222#0 -195743224#1 -195922666#0 -195922666#1 -195922666#2 -22904155#1 -252227354#1 -252227354#2 -252227354#4 -346951422#1 -352858405 -37182106#0 -37182106#1 -37182106#4 -404253730#0 -420894362#1 -420894363#0 -420894365#1 -420894366#0 -420894367#1 -420894368#0 -420894370#1 -420894373#0 -420894374#0 -420894375#0 -420895733#0 -439801907#10 -439801907#7 -46524947#1 -46524959#0 -46524959#1 -46524969#1 -46524975#1 -46524983#1 -46524998 -46525019#1 -46525029#1 -46526965#1 -46529274#1 -46529274#2 -46538396#0 -46538405#0 -474304539#1 -474304540#1 -474304540#4 -5669975#1 -5670694#0 -5670694#1 -5670694#4 -5671801#1 -5672398#1 -5673349#0 -584971443 -627805511#1 -627805512#0 -627805515#0 -627805518#0 -627805518#1 -68674958#1 -837696043#0 -837696044#1 -95181769#0 -973117512 1123883121#16 1135726216#0 1140716171#1 154716101#0 154716101#1 154716101#2 154716101#3 154716101#4 154716101#5 154716102#1 154716105#1 154716105#2 169381957#1 169381959#1 169381964#1 195743151#1 195743151#2 195743193#0 195743193#1 195743193#3 195743193#6 195743213#0 195743216#1 195743217#1 195743217#4 195743222#0 195743224#1 195922666#0 195922666#1 195922666#2 22904155#1 22941930#1 252227354#1 252227354#2 252227354#4 252227355#1 346951422#1 37182106#0 37182106#1 37182106#4 395037175#1 404253730#0 420894362#1 420894363#0 420894365#1 420894366#0 420894367#1 420894368#0 420894370#1 420894373#0 420894375#0 420894376#1 44164413#1 46334588 46443597#0 46524947#1 46524959#0 46524959#1 46524969#1 46524975#1 46524983#1 46524998 46525011#1 46525019#1 46525029#1 46526948#0 46526948#1 46526965#1 46529270#1 46529274#1 46529274#2 46538396#0 46538405#0 46538429#1 474304539#1 474304540#1 474304540#4 5669975#1 5670627#1 5670627#2 5670694#0 5670694#1 5670694#4 5670734#1 5670734#2 5670734#3 5670734#4 5672398#1 5672998#1 5672998#2 5673228#1 5673349#0 584971443 627805511#1 627805515#1 627805517 627805518#0 627805518#1 68668561#1 68674958#1 705223736#0 705223736#1 789634640#1 837696043#0 837696044#1 95181769#0 973117512 990288467"/>