<?xml version="1.0" encoding="UTF-8"?>

<!-- generated on 2025-09-20 01:38:10 by Eclipse SUMO duarouter Version 1.24.0
<duarouterConfiguration xmlns:xsi="http://www.w3.org/2001/XMLSchema-instance" xsi:noNamespaceSchemaLocation="http://sumo.dlr.de/xsd/duarouterConfiguration.xsd">

    <input>
        <net-file value="019/../osm.net.xml.gz"/>
        <route-files value="019/../018/taxi_trips_018.rou.alt.xml"/>
        <weight-files value="019/../018/dump_900.xml"/>
    </input>

    <output>
        <output-file value="019/taxi_trips_019.rou.xml"/>
        <exit-times value="False"/>
    </output>

    <processing>
        <max-alternatives value="5"/>
        <with-taz value="False"/>
        <routing-algorithm value="dijkstra"/>
        <weights.expand value="true"/>
        <gawron.beta value="0.9"/>
        <gawron.a value="0.5"/>
        <keep-all-routes value="False"/>
        <logit.beta value="0.15"/>
        <logit.gamma value="1.0"/>
    </processing>

    <time>
        <begin value="0"/>
    </time>

    <report>
        <verbose value="False"/>
        <no-warnings value="False"/>
        <ignore-errors value="True"/>
        <no-step-log value="true"/>
    </report>

    <random_number>
        <random value="False"/>
    </random_number>

</duarouterConfiguration>
-->

<routes xmlns:xsi="http://www.w3.org/2001/XMLSchema-instance" xsi:noNamespaceSchemaLocation="http://sumo.dlr.de/xsd/routes_file.xsd">
    <vehicle id="taxi5" type="shared_bike" depart="25255.65" departLane="free" departSpeed="max" fromTaz="4" toTaz="4">
        <route edges="-1159052040 -477151469#8 -477151469#5 -477151469#2 -25167210#7 -25167210#5 25167210#5"/>
    </vehicle>
    <vehicle id="taxi18" type="shared_bike" depart="2536" departLane="free" departSpeed="max" fromTaz="41" toTaz="263">
        <route edges="-806169765#4 -806169765#1 -848011474#4 -848011474#1 -47796089#1 439801896#1 439801896#2 5673363#0 834058007#0 834058007#1 584850094#0 584850094#1 -439801898#1 -439801898#0 -1271523199#0 -68674967#1 -1271523197#3 -1271523197#0 -1271523198#1 -195743153#3 -195743153#0 -1271523196#1 -1271523195#3 -1271523195#0 -1271523194#1 -1271523193#3 -1271523193#0 -1271523192#1 -1271523191#1 -195743154#0 -1271523190#1 -895606701#1 -1271523188#0 -1271523189#1 -822072342#1 -1271523186#0 -1271523187#1 -46334665#4 -46334665#3 -46334665#0 -1271523185#1 -1271523182#3 -1271523182#0 -1271523183#1 -1081976618#1 -1081895356#1 1306411978#1 1306411979 -1306411977 -760748052 -46613696#2 -46613696#1 5671690 1306411981 489090277#0 489090277#1 68668532#3 68668532#4 68668532#7 5670797#1 5670797#4 5670797#8 5670797#11 5670797#14 1024556672#1 1024556673#1 1024556689#0 1024556674#1 1024556675#0 1080862175#1 5673456 1080862176#0 -1080862176#0"/>
    </vehicle>
    <vehicle id="taxi7" type="shared_bike" depart="2560" departLane="free" departSpeed="max" fromTaz="41" toTaz="263">
        <route edges="420883170#0 278882487#1 278882487#2 278882487#3 278882487#6 1076213172#4 1076213172#7 1076213172#10 1076213172#11 1076213172#13 1032460513#1 1333150713#1 1375564326#1 1379903157#1 1363260165#1 1370835885#1 1370835885#2 1370835885#3 798222129#1 798222129#4 798222129#7 798222129#10 798222129#13 798222129#16 798222129#17 798222129#18 798222129#19 798222129#20 798222129#23 798222129#26 798222129#29 798222129#32 798222129#33 353135768#0 353135768#3 353135767#0 993505682#1 68674962#3 68674962#6 68674962#9 68674962#12 68674962#15 846358874#5 846358874#8 846358874#11 1030119881#1 1030119881#4"/>
    </vehicle>
    <vehicle id="taxi25" type="shared_bike" depart="2563" departLane="free" departSpeed="max" fromTaz="41" toTaz="263">
        <route edges="420878112#4 1034716084 420878096#0 978439473#3 420878080#0 420878110#1 978645354#1 420878078#0 420878116#1 420878116#4 420878089#0 305323031#1 305323031#4 305323031#7 305323031#10 420878081#0 420878076#1 420878119#1 -44164416#0 5670099#1 195743338#0 195743338#3 993506897#1 993506897#4 993506897#6 5670470#2 584971412#21 584971412#24 196117041#1 993495873#1 993495871#1 993495869#1 993495868#1 993495868#4 993495868#7 993495867#0 993495865#1 993495865#4 353220112#1 353220115#1 353220115#4 353220115#7 353220115#10 353220115#13 353220115#16 353220115#19 353220115#22 5671357#11 5671357#14 569266494#1 569266494#4"/>
    </vehicle>
    <vehicle id="taxi1" type="shared_bike" depart="2567" departLane="free" departSpeed="max" fromTaz="4" toTaz="4">
        <route edges="-1159051944#0 477151468#1 5670512#1 -477151469#8 25167069#1 25167069#2 5668983#0"/>
    </vehicle>
    <vehicle id="taxi14" type="shared_bike" depart="2587" departLane="free" departSpeed="max" fromTaz="41" toTaz="263">
        <route edges="5671009#6 5669822#0 5669822#1 5671162#0 5671162#1 5671162#2 5671162#5 196116993 569369541#1 1076213173#1 1076213173#4 1375564328#4 1375564328#6 1375564328#8 420871065#0 420871065#1 1059596038#0 1059596038#1 420871059#0 420885242#1 420907047#1 420907046#1 420885237#0 420885236#1 420885239#0 420885243#1 420885243#4 420885238#0 46226325#1 1052970500#1 420885235#0 420885241#1 420885241#2 420885240#0 420885244#1 1057613219#1 569266470#0 202360048#1 1335759518#1 569266471#0 569266473#1 569266473#4 569266474#0 226015267#1 226015267#4 226015267#6 569266476#0 195743323#1 1053591753 569266478#0 195743326#1 5670236#4"/>
    </vehicle>
    <vehicle id="taxi16" type="shared_bike" depart="2592" departLane="free" departSpeed="max" fromTaz="41" toTaz="263">
        <route edges="420878102#1 275298533#1 275298533#2 1032460512#1 1032460512#4 798222129#1 798222129#4 798222129#7 798222129#10 798222129#13 798222129#16 798222129#17 798222129#18 798222129#19 798222129#20 798222129#23 798222129#26 798222129#29 798222129#32 798222129#33 353135768#0 353135768#3 353135767#0 -1091726255#1 -1425538374#0 -1425538375#1 -353220077#1 195743326#1 1136398322#1 1030119880 569266480#0 660225529#0 420886256#4 420886247#0 5670236#1"/>
    </vehicle>
    <vehicle id="taxi3" type="shared_bike" depart="2595" departLane="free" departSpeed="max" fromTaz="4" toTaz="4">
        <route edges="46582968#1 -1159053669#3 813956618#4 -397839400#11 -397839400#8 -397839400#5 -397839400#2 1077735923#1 1077735924 25163419#0"/>
    </vehicle>
    <vehicle id="taxi13" type="shared_bike" depart="2596" departLane="free" departSpeed="max" fromTaz="41" toTaz="263">
        <route edges="581134346#1 -581134346#1 -630828562#1 -196117044#7 -196117044#4 -196117044#1 -195743186#10 -195743186#7 -195743186#4 -195743186#1 -5671485#16 -5671485#15 -5671485#13 -5671485#12 -5671485#10 -5671485#9 -5671485#7 -5671485#6 -5671485#5 -5671485#4 -5671485#2 -5671485#1 810071011#1 -1271523191#1 -195743154#0 -1271523190#1 -895606701#1 -1271523188#0 -1271523189#1 -822072342#1 -1271523186#0 -1271523187#1 -46334665#4 -46334665#3 -46334665#0 -1271523185#1 -1271523182#3 -1271523182#0 -1271523183#1 -1081976618#1 -1081895356#1 1306411978#1 1306411979 -1306411977 -760748052 -46613696#2 -46613696#1 5671690 1306411981 489090277#0 489090277#1 5670370#0 5670370#1 1080862800#1 46334580#0 46334580#1 46334580#5 46334580#8 579565231#16 579565231#19 1215388281#0 387128266#1 1024556668#1 1024556667#1 1024556666#0"/>
    </vehicle>
    <vehicle id="taxi8" type="shared_bike" depart="2601" departLane="free" departSpeed="max" fromTaz="41" toTaz="263">
        <route edges="196117037#1 736297373#1 -332388684#0 -332388685 -420881459#1 420881455#1 421506979#1 421506977#0 421506977#1 420881456#1 420881454#0 -195745912#0 -421844226 195745913#1 1321771844#0 46226330 32963318 122738256#1 32963302 961825347 961825346 963982119 963982118 953810802 953810807 358226652 953810800#0 953810800#1 485176772#1 -592374690 -420886628#1 195743326#1 1136398322#1 1030119880 569266480#0 569266483#1 569266486#1 569266487#0"/>
    </vehicle>
    <vehicle id="taxi23" type="shared_bike" depart="2604" departLane="free" departSpeed="max" fromTaz="41" toTaz="263">
        <route edges="305323028#1 305323028#2 -305323028#2 -305323028#1 305323031#1 305323031#4 305323031#7 305323031#10 420878081#0 420878076#1 420878119#1 -44164416#0 5670099#1 195743338#0 195743338#3 195743338#6 195743338#9 993517671#1 195743332#1 195743332#4 195743332#7 195743332#10 195743332#13 195743332#15 1378258842#0 1378258841#1 587061863#1 195743334#1 195743334#4 195743334#7 195743334#10 5671623#1 5671623#4 5671623#8 353220115#13 353220115#16 353220115#19 353220115#22 353220115#25 353220115#28 1053630777#0 1080862794#1 1356976353#1 1215388280#0"/>
    </vehicle>
    <vehicle id="taxi15" type="shared_bike" depart="2606" departLane="free" departSpeed="max" fromTaz="41" toTaz="263">
        <route edges="978645353#5 671845942#1 660671382#1 660671382#5 845942677#1 845942677#2 5669822#0 5669822#1 5671162#0 5671162#1 5671162#2 5671162#5 1032460513#1 1333150713#1 1375564326#1 1379903157#1 1363260165#1 1370835885#1 1370835885#2 1370835885#3 798222129#1 798222129#4 798222129#7 798222129#10 798222129#13 798222129#16 798222129#17 798222129#18 798222129#19 798222129#20 798222129#23 798222129#26 798222129#29 798222129#32 798222129#33 353135768#0 353135768#3 353135767#0 -1091726255#1 -1425538374#0 -1425538375#1 -353220077#1 195743326#1 1136398322#1 1030119880 569266480#0 660225529#0"/>
    </vehicle>
    <vehicle id="taxi11" type="shared_bike" depart="2611" departLane="free" departSpeed="max" fromTaz="41" toTaz="263">
        <route edges="990626893#2 439801896#1 439801896#2 5673363#0 834058007#0 834058007#1 584850094#0 584850094#1 -439801898#1 -439801898#0 -1271523199#0 -68674967#1 -1271523197#3 -1271523197#0 -1271523198#1 -195743153#3 -195743153#0 -1271523196#1 -1271523195#3 -1271523195#0 -1271523194#1 -1271523193#3 -1271523193#0 -1271523192#1 -1271523191#1 -195743154#0 -1271523190#1 760711170 -34958053 5671090 760727197 760727187#0 195743334#1 195743334#4 195743334#7 195743334#10 5671623#1 5671623#4 5671623#8 353220115#13 353220115#16 353220115#19 353220115#22 5671357#11 5671357#14 569266494#1 569266494#4 1030119883#0"/>
    </vehicle>
    <vehicle id="taxi10" type="shared_bike" depart="2628" departLane="free" departSpeed="max" fromTaz="41" toTaz="263">
        <route edges="-630828562#1 630828562#1 581134345#1 990626914#1 806169764#2 806169764#5 305323031#7 305323031#10 420878081#0 420878076#1 420878119#1 -44164416#0 5670099#1 195743338#0 195743338#3 195743338#6 195743338#9 993517671#1 195743332#1 195743332#4 195743332#7 195743332#10 195743332#13 195743332#15 1378258842#0 1378258841#1 587061863#1 195743334#1 195743334#4 195743334#7 195743334#10 5671623#1 5671623#4 5671623#8 353220115#13 353220115#16 353220115#19 353220115#22 353220115#25 353220115#28 1053630777#0 1106469540#1 1106469540#4 46334580#8 46334580#11 1024556669#1"/>
    </vehicle>
    <vehicle id="taxi21" type="shared_bike" depart="2685" departLane="free" departSpeed="max" fromTaz="41" toTaz="263">
        <route edges="275298533#2 1032460512#1 1032460512#4 798222129#1 798222129#4 798222129#7 798222129#10 798222129#13 798222129#16 798222129#17 798222129#18 798222129#19 798222129#20 798222129#23 798222129#26 798222129#29 798222129#32 798222129#33 353135768#0 353135768#3 353135767#0 993505682#1 68674962#3 68674962#6 68674962#9 68674962#12 68674962#15 68674962#18 68674962#21 68674962#24 68674962#27 68674962#30 68674962#33 46334580#5 46334580#8 46334580#11 1024556665#1"/>
    </vehicle>
    <vehicle id="taxi2" type="shared_bike" depart="2704" departLane="free" departSpeed="max" fromTaz="4" toTaz="4">
        <route edges="32935551#4 420629927 397839400#1 397839400#5 397839400#8 397839400#11 25167210#1 25167210#2 25167210#5 25167210#6 477151469#1 477151469#5 25167069#1 25167069#2 5668983#0"/>
    </vehicle>
    <vehicle id="taxi17" type="shared_bike" depart="2704" departLane="free" departSpeed="max" fromTaz="41" toTaz="263">
        <route edges="980855833#0 980855832#1 980855831#1 840996403#1 195743338#0 195743338#3 195743338#6 195743338#9 993517671#1 195743332#1 195743332#4 195743332#7 195743332#10 195743332#13 195743332#15 1378258842#0 1378258841#1 587061863#1 195743334#1 195743334#4 195743334#7 195743334#10 195743334#13 440122865#1 440122867#1 440122867#4 440122867#7 1217393802#1 68668564#1 68668564#2 68668532#0 68668532#1 68668532#2 68668532#3 68668532#4 68668532#7 5670797#1 5670797#4 5670797#8 5670797#11 5670797#14 1024556672#1 1024556673#1 1024556689#0 1024556674#1"/>
    </vehicle>
    <vehicle id="taxi24" type="shared_bike" depart="2714" departLane="free" departSpeed="max" fromTaz="41" toTaz="263">
        <route edges="5670842#4 1024491588 420877070#1 -305323028#2 -305323028#1 -5670540#1 -587061820#1 -1363260164#1 1363260165#1 1370835885#1 1370835885#2 1370835885#3 798222129#1 798222129#4 798222129#7 798222129#10 993506897#6 5670470#2 584971412#21 584971412#24 196117041#1 993495873#1 993495871#1 993495869#1 993495868#1 993495868#4 993495868#7 993495867#0 993495865#1 993495865#4 353220112#1 -1425538374#0 -1425538375#1 -353220077#1 195743326#1 1136398322#1 1030119880 569266480#0 569266483#1 569266486#1 569266487#0 569266489#1 908154310#1 195743315#0"/>
    </vehicle>
    <vehicle id="taxi12" type="shared_bike" depart="2723" departLane="free" departSpeed="max" fromTaz="41" toTaz="263">
        <route edges="-848011474#4 -848011474#1 275298535#4 990626895#1 990626895#4 990626891#0 -1384404636#0 1384483434#0 -44164416#0 5670099#1 195743338#0 195743338#3 195743338#6 195743338#9 -584971390#0 1020162350#0 757703379#1 757703379#2 757703379#3 993506891#1 993506891#2 1378037356#1 1378032089 1378032090#0 497259111#1 497259111#2 420885244#1 1057613219#1 569266470#0 202360048#1 1335759518#1 569266471#0 569266473#1 569266473#4 569266474#0 226015267#1 226015267#4 226015267#6 569266476#0 195743323#1 1053591753 569266478#0 195743326#1 1136398322#1 1030119880 569266480#0 569266483#1 569266486#1 569266487#0 569266490#1 1153992800#1 569266491#0 1030119881#1 1030119881#4 1030119882#0 569266494#1 569266494#4 1030119883#0 1024556668#1 56578204#4"/>
    </vehicle>
    <vehicle id="taxi19" type="shared_bike" depart="2743" departLane="free" departSpeed="max" fromTaz="41" toTaz="263">
        <route edges="439801896#1 439801896#2 5673363#0 834058007#0 834058007#1 584850094#0 584850094#1 439801904#0 439801904#1 -1384483470#1 -1384483470#0 -1384404636#0 1384483434#0 -44164416#0 5670099#1 195743338#0 195743338#3 195743338#6 195743338#9 993517671#1 195743332#1 541332223#1 834235537#1 834235546 834235538 993495872#1 993495871#1 993495869#1 993495868#1 993495868#4 993495868#7 993495867#0 993495865#1 993495865#4 353220112#1 -1425538374#0 -1425538375#1 -353220077#1 420886628#1 592374690"/>
    </vehicle>
    <vehicle id="taxi9" type="shared_bike" depart="2750" departLane="free" departSpeed="max" fromTaz="41" toTaz="263">
        <route edges="-195743187#16 569369534#4 569369534#5 -5670859#12 -5670859#9 -5670859#6 -5670859#3 -5670859#1 -5670859#0 -460596360#3 -460596360#2 -460596360#1 439801906#1 -196117044#7 275298535#1 275298535#4 275298538#1 275298541#1 275298533#1 275298533#2 980855832#1 980855831#1 840996403#1 195743338#0 195743338#3 195743338#6 195743338#9 993517671#1 195743332#1 195743332#4 195743332#7 195743332#10 195743332#13 195743332#15 1378258842#0 1378258841#1 587061863#1 195743334#1 195743334#4 5671222#1 5671222#4 68674962#6 68674962#9 5671623#8 5671623#11 5671623#14"/>
    </vehicle>
    <vehicle id="taxi20" type="shared_bike" depart="2763" departLane="free" departSpeed="max" fromTaz="41" toTaz="263">
        <route edges="1034716084 420878096#0 978439473#3 420878080#0 420878110#1 978645354#1 420878078#0 420878116#1 420878116#4 420878089#0 -5670540#1 22898583#1 22898583#4 22898583#6 980855833#0 980855832#1 980855831#1 840996403#1 195743338#0 195743338#3 195743338#6 195743338#9 993517671#1 195743332#1 195743332#4 195743332#7 195743332#10 195743332#13 195743332#15 1378258842#0 1378258841#1 587061863#1 195743334#1 195743334#4 195743334#7 195743334#10 195743334#13 440122865#1 5671248#1 846358874#1 846358874#5 846358874#8 846358874#11"/>
    </vehicle>
    <vehicle id="taxi0" type="shared_bike" depart="2768" departLane="free" departSpeed="max" fromTaz="4" toTaz="4">
        <route edges="-1159052040 -477151469#8 25167069#1"/>
    </vehicle>
    <vehicle id="taxi6" type="shared_bike" depart="2805" departLane="free" departSpeed="max" fromTaz="41" toTaz="263">
        <route edges="980853075#1 -420882491#0 -420882493#1 660671382#1 660671382#5 420878110#1 978645354#1 420878078#0 420878116#1 420878116#4 420878089#0 -5670540#1 22898583#1 22898583#4 22898583#6 980855833#0 980855832#1 980855831#1 840996403#1 195743338#0 195743338#3 195743338#6 195743338#9 993517671#1 195743332#1 195743332#4 195743332#7 195743332#10 195743332#13 195743332#15 1378258842#0 1378258841#1 587061863#1 195743334#1 195743334#4 195743334#7 195743334#10 195743334#13 440122865#1 5671248#1 846358874#1 846358874#5 846358874#8 846358874#11 1030119881#1 1030119881#4 1030119882#0 569266494#1 569266494#4"/>
    </vehicle>
    <vehicle id="taxi4" type="shared_bike" depart="2815" departLane="free" departSpeed="max" fromTaz="4" toTaz="4">
        <route edges="665503121#2 5673157#1 46201667 1080978590#1 1080978590#2 822128686 421830414 1080978589#0 1080978589#2"/>
    </vehicle>
    <vehicle id="taxi22" type="shared_bike" depart="2838" departLane="free" departSpeed="max" fromTaz="41" toTaz="263">
        <route edges="1062097097 420877089#1 420877089#4 420877074#0 5670842#1 5670842#4 1024491588 420877070#1 990626912#1 990626912#4 990626913#0 806169764#2 -46613656#7 -46613656#4 275298541#1 420878076#1 420878119#1 -44164416#0 5670099#1 195743338#0 195743338#3 195743338#6 195743338#9 993517671#1 195743332#1 195743332#4 195743332#7 195743332#10 195743332#13 195743332#15 1378258842#0 1378258841#1 587061863#1 195743334#1 195743334#4 195743334#7 195743334#10 5671623#1 5671623#4 5671623#8 353220115#13 353220115#16 353220115#19 353220115#22 353220115#25 353220115#28 1053630777#0 1106469540#1 1106469540#4 1106469540#7 1106469540#10 1106469540#13 1106469540#16 5670707#11 5670707#12 5670707#14 1024556674#1"/>
    </vehicle>
</routes>
