<?xml version="1.0" encoding="UTF-8"?>

<!-- generated on 2025-09-19 13:22:32.565550 by gtfs2pt.py UNKNOWN
<configuration>
    <gtfs value="gtfs_m.zip"/>
    <date value="20250903"/>
    <modes value="bus"/>
    <vtype-output value="gtfs_out/pt_vtypes.xml"/>
    <verbose value="True"/>
    <network value="osm.net.xml.gz"/>
    <route-output value="gtfs_out/gtfs_publictransport.rou.xml"/>
    <additional-output value="gtfs_out/gtfs_publictransport.add.xml"/>
    <stops value="osm_stops.add.xml"/>
    <skip-fcd value="True"/>
    <osm-routes value="osm_ptlines.xml"/>
    <repair value="True"/>
</configuration>
-->

<additional xmlns:xsi="http://www.w3.org/2001/XMLSchema-instance" xsi:noNamespaceSchemaLocation="http://sumo.dlr.de/xsd/additional_file.xsd">
    <busStop id="400041_0" lane="195743184#1_0" startPos="46.68" endPos="59.68" name="MADISON AV/E 98 ST" friendlyPos="true">
        <access friendlyPos="true" lane="758789360#1_0" pos="59.70" length="2.50"/>
        <access friendlyPos="true" lane="667956376#3_0" pos="0.00" length="5.80"/>
        <access friendlyPos="true" lane="667956329#0_0" pos="0.00" length="7.54"/>
        <access friendlyPos="true" lane="667956358_0" pos="0.00" length="8.55"/>
        <access friendlyPos="true" lane="667956329#1_0" pos="0.00" length="25.99"/>
        <access friendlyPos="true" lane="667956340#0_0" pos="0.20" length="27.54"/>
        <access friendlyPos="true" lane="667956340#1_0" pos="0.00" length="39.39"/>
        <access friendlyPos="true" lane="667956376#0_0" pos="0.20" length="39.48"/>
        <access friendlyPos="true" lane="667956376#1_0" pos="0.20" length="30.52"/>
        <access friendlyPos="true" lane="667956376#2_0" pos="0.20" length="28.62"/>
    </busStop>
    <busStop id="400042_0" lane="195743184#9_0" startPos="45.83" endPos="58.83" name="MADISON AV/E 101 ST" friendlyPos="true">
        <access friendlyPos="true" lane="667956361#1_0" pos="59.66" length="2.41"/>
        <access friendlyPos="true" lane="762376021#1_0" pos="0.00" length="5.40"/>
        <access friendlyPos="true" lane="667956361#2_0" pos="0.00" length="9.51"/>
        <access friendlyPos="true" lane="1218711334_0" pos="0.00" length="25.95"/>
        <access friendlyPos="true" lane="762376017#1_0" pos="0.20" length="30.39"/>
        <access friendlyPos="true" lane="667956349_0" pos="0.20" length="28.47"/>
        <access friendlyPos="true" lane="667956308_0" pos="0.20" length="39.08"/>
        <access friendlyPos="true" lane="763482878#1_0" pos="0.00" length="38.90"/>
        <access friendlyPos="true" lane="667956361#3_0" pos="0.00" length="29.77"/>
        <access friendlyPos="true" lane="667956341#0_0" pos="0.00" length="29.95"/>
    </busStop>
    <busStop id="400043_0" lane="195743184#15_0" startPos="20.85" endPos="33.85" name="MADISON AV/E 102 ST" friendlyPos="true">
        <access friendlyPos="true" lane="667956360#0_0" pos="33.62" length="2.62"/>
        <access friendlyPos="true" lane="667956330_0" pos="24.53" length="29.87"/>
        <access friendlyPos="true" lane="849046422_0" pos="3.13" length="35.38"/>
        <access friendlyPos="true" lane="667956381#1_0" pos="0.20" length="40.11"/>
        <access friendlyPos="true" lane="667956360#1_0" pos="0.00" length="43.92"/>
        <access friendlyPos="true" lane="667958801#3_0" pos="0.00" length="43.88"/>
        <access friendlyPos="true" lane="667958801#2_0" pos="27.43" length="44.15"/>
        <access friendlyPos="true" lane="667956381#0_0" pos="0.20" length="49.39"/>
        <access friendlyPos="true" lane="667956302#1_0" pos="0.20" length="51.47"/>
        <access friendlyPos="true" lane="833376601_0" pos="128.91" length="52.71"/>
    </busStop>
    <busStop id="400044_0" lane="195743184#18_0" startPos="42.96" endPos="55.96" name="MADISON AV/E 104 ST" friendlyPos="true">
        <access friendlyPos="true" lane="667956360#3_0" pos="43.78" length="2.64"/>
        <access friendlyPos="true" lane="762376022#1_0" pos="0.00" length="7.00"/>
        <access friendlyPos="true" lane="667956300#0_0" pos="0.00" length="9.31"/>
        <access friendlyPos="true" lane="667956320#0_0" pos="0.00" length="8.69"/>
        <access friendlyPos="true" lane="667956335_0" pos="0.20" length="29.93"/>
        <access friendlyPos="true" lane="667956320#1_0" pos="0.00" length="34.21"/>
        <access friendlyPos="true" lane="667956331#0_0" pos="0.20" length="35.74"/>
        <access friendlyPos="true" lane="762376018#1_0" pos="0.20" length="31.71"/>
        <access friendlyPos="true" lane="667956311_0" pos="0.20" length="42.58"/>
        <access friendlyPos="true" lane="667956331#1_0" pos="0.00" length="43.21"/>
    </busStop>
    <busStop id="400045_0" lane="195743184#24_0" startPos="45.65" endPos="58.65" name="MADISON AV/E 106 ST" friendlyPos="true">
        <access friendlyPos="true" lane="667956333#5_0" pos="15.52" length="2.05"/>
        <access friendlyPos="true" lane="667956347#1_0" pos="0.00" length="7.43"/>
        <access friendlyPos="true" lane="667956314#0_0" pos="0.00" length="9.01"/>
        <access friendlyPos="true" lane="667956324#0_0" pos="0.00" length="9.42"/>
        <access friendlyPos="true" lane="757703379#1_0" pos="0.00" length="15.24"/>
        <access friendlyPos="true" lane="667956347#0_0" pos="0.20" length="29.82"/>
        <access friendlyPos="true" lane="1218711333#1_0" pos="0.20" length="31.78"/>
        <access friendlyPos="true" lane="949851338_0" pos="0.00" length="27.63"/>
        <access friendlyPos="true" lane="667956333#4_0" pos="38.46" length="30.86"/>
        <access friendlyPos="true" lane="993506893#2_0" pos="120.20" length="30.50"/>
    </busStop>
    <busStop id="400062_0" lane="305323034#1_0" startPos="15.56" endPos="28.56" name="MALCOLM X BLVD/W 139 ST" friendlyPos="true">
        <access friendlyPos="true" lane="1348375968#3_0" pos="27.88" length="5.72"/>
        <access friendlyPos="true" lane="1037859039#2_0" pos="1.30" length="43.52"/>
        <access friendlyPos="true" lane="1348375968#4_0" pos="0.00" length="47.63"/>
        <access friendlyPos="true" lane="1037465415#0_0" pos="27.92" length="44.34"/>
        <access friendlyPos="true" lane="883116229#9_0" pos="0.20" length="45.97"/>
        <access friendlyPos="true" lane="1348375968#2_0" pos="72.93" length="46.51"/>
        <access friendlyPos="true" lane="883116229#0_0" pos="0.00" length="47.57"/>
        <access friendlyPos="true" lane="1037859039#0_0" pos="0.20" length="62.47"/>
        <access friendlyPos="true" lane="883116230#0_0" pos="2.58" length="64.83"/>
        <access friendlyPos="true" lane="883116230#2_0" pos="0.00" length="77.96"/>
    </busStop>
    <busStop id="400065_0" lane="5670119#1_0" startPos="8.38" endPos="21.38" name="MALCOLM X BLVD/W 145 ST" friendlyPos="true">
        <access friendlyPos="true" lane="1037463244#5_0" pos="27.13" length="2.31"/>
        <access friendlyPos="true" lane="1375152174_0" pos="1.92" length="12.33"/>
        <access friendlyPos="true" lane="1210807302_0" pos="157.72" length="44.96"/>
        <access friendlyPos="true" lane="1037463244#4_0" pos="3.62" length="48.25"/>
        <access friendlyPos="true" lane="1112424674#1_0" pos="12.80" length="46.69"/>
        <access friendlyPos="true" lane="1375152177_0" pos="1.20" length="48.97"/>
        <access friendlyPos="true" lane="1112424674#0_0" pos="5.96" length="53.79"/>
        <access friendlyPos="true" lane="1037463245#0_0" pos="1.49" length="56.63"/>
        <access friendlyPos="true" lane="1210807301_0" pos="0.00" length="57.90"/>
        <access friendlyPos="true" lane="1037463244#3_0" pos="0.14" length="61.15"/>
    </busStop>
    <busStop id="400066_0" lane="5671684#1_0" startPos="13.16" endPos="26.16" name="W 147 ST/MALCOLM X BLVD" friendlyPos="true">
        <access friendlyPos="true" lane="1037463260#1_0" pos="208.39" length="7.63"/>
        <access friendlyPos="true" lane="1037463259#1_0" pos="26.12" length="14.01"/>
        <access friendlyPos="true" lane="1037859048#1_0" pos="0.00" length="43.09"/>
        <access friendlyPos="true" lane="1088521882_0" pos="27.53" length="47.51"/>
        <access friendlyPos="true" lane="1037463248#2_0" pos="0.20" length="44.67"/>
        <access friendlyPos="true" lane="1037463248#1_0" pos="59.83" length="46.41"/>
        <access friendlyPos="true" lane="1037463247#1_0" pos="7.07" length="48.77"/>
        <access friendlyPos="true" lane="1037463247#0_0" pos="9.21" length="72.61"/>
        <access friendlyPos="true" lane="1210807301_0" pos="144.18" length="93.50"/>
        <access friendlyPos="true" lane="1037463244#1_0" pos="0.00" length="90.47"/>
    </busStop>
    <busStop id="400067_0" lane="5671684#1_0" startPos="219.35" endPos="232.35" name="W 147 ST/ADAM C POWELL BLVD" friendlyPos="true">
        <access friendlyPos="true" lane="1037463260#1_0" pos="2.19" length="8.24"/>
        <access friendlyPos="true" lane="1112424680#1_0" pos="0.00" length="9.62"/>
        <access friendlyPos="true" lane="1037463253#2_0" pos="0.20" length="11.76"/>
        <access friendlyPos="true" lane="1418270642#1_0" pos="0.00" length="13.90"/>
        <access friendlyPos="true" lane="1037463259#1_0" pos="232.32" length="14.15"/>
        <access friendlyPos="true" lane="1112424680#0_0" pos="0.20" length="14.40"/>
        <access friendlyPos="true" lane="1112424679_0" pos="59.38" length="19.33"/>
        <access friendlyPos="true" lane="1037463252#2_0" pos="0.20" length="16.53"/>
        <access friendlyPos="true" lane="1037463252#0_0" pos="0.20" length="63.93"/>
        <access friendlyPos="true" lane="1112424682#1_0" pos="0.00" length="65.19"/>
    </busStop>
    <busStop id="400070_0" lane="1032502934#1_0" startPos="10.90" endPos="23.90" name="TRINITY PL/RECTOR ST" friendlyPos="true">
        <access friendlyPos="true" lane="810795749#0_0" pos="4.44" length="3.42"/>
        <access friendlyPos="true" lane="1126606250_0" pos="0.00" length="7.58"/>
        <access friendlyPos="true" lane="888759097#3_0" pos="28.99" length="15.43"/>
        <access friendlyPos="true" lane="1124734552#1_0" pos="22.50" length="23.69"/>
        <access friendlyPos="true" lane="1124734553_0" pos="19.15" length="25.80"/>
        <access friendlyPos="true" lane="1230946488_0" pos="0.00" length="23.18"/>
        <access friendlyPos="true" lane="810795748#2_0" pos="20.66" length="25.68"/>
        <access friendlyPos="true" lane="888759098#2_0" pos="105.41" length="28.52"/>
        <access friendlyPos="true" lane="1126606253_0" pos="1.01" length="32.80"/>
        <access friendlyPos="true" lane="810795749#1_0" pos="0.00" length="37.96"/>
    </busStop>
    <busStop id="400088_0" lane="420895466#1_0" startPos="0.00" endPos="13.00" name="MALCOLM X BLVD/W 145 ST" friendlyPos="true">
        <access friendlyPos="true" lane="1375152168_0" pos="0.00" length="6.35"/>
        <access friendlyPos="true" lane="1037859044#0_0" pos="2.76" length="7.41"/>
        <access friendlyPos="true" lane="1112424673#1_0" pos="0.00" length="8.08"/>
        <access friendlyPos="true" lane="1037859044#1_0" pos="0.00" length="12.50"/>
        <access friendlyPos="true" lane="1112424673#2_0" pos="0.00" length="13.82"/>
        <access friendlyPos="true" lane="1037463254_0" pos="232.66" length="13.73"/>
        <access friendlyPos="true" lane="1037463245#4_0" pos="1.49" length="35.53"/>
        <access friendlyPos="true" lane="1037463245#0_0" pos="1.49" length="43.65"/>
        <access friendlyPos="true" lane="1112424673#3_0" pos="0.00" length="39.31"/>
        <access friendlyPos="true" lane="1375152171_0" pos="11.01" length="38.04"/>
    </busStop>
    <busStop id="400089_0" lane="420895467#1_0" startPos="14.00" endPos="27.00" name="MALCOLM X BLVD/W 142 ST" friendlyPos="true">
        <access friendlyPos="true" lane="1037465408#1_0" pos="32.47" length="7.79"/>
        <access friendlyPos="true" lane="1348375968#9_0" pos="30.97" length="44.06"/>
        <access friendlyPos="true" lane="1348375975_0" pos="0.00" length="44.76"/>
        <access friendlyPos="true" lane="1037465416#5_0" pos="0.20" length="45.50"/>
        <access friendlyPos="true" lane="1037465408#2_0" pos="0.00" length="46.73"/>
        <access friendlyPos="true" lane="1037465416#4_0" pos="0.20" length="47.18"/>
        <access friendlyPos="true" lane="1348375974#1_0" pos="3.52" length="46.41"/>
        <access friendlyPos="true" lane="1348375973#1_0" pos="5.69" length="48.63"/>
        <access friendlyPos="true" lane="1348375973#0_0" pos="230.41" length="55.34"/>
        <access friendlyPos="true" lane="1348375972#1_0" pos="0.20" length="53.98"/>
    </busStop>
    <busStop id="400108_0" lane="195743338#6_0" startPos="0.00" endPos="13.00" name="5 AV/E 108 ST" friendlyPos="true">
        <access friendlyPos="true" lane="833376616#4_0" pos="3.43" length="3.96"/>
        <access friendlyPos="true" lane="833533095#0_0" pos="0.00" length="9.08"/>
        <access friendlyPos="true" lane="833376616#3_0" pos="10.14" length="13.26"/>
        <access friendlyPos="true" lane="833533095#1_0" pos="0.00" length="27.40"/>
        <access friendlyPos="true" lane="833533115#1_0" pos="2.53" length="31.75"/>
        <access friendlyPos="true" lane="833533104#0_0" pos="0.00" length="29.48"/>
        <access friendlyPos="true" lane="833533115#0_0" pos="0.20" length="41.39"/>
        <access friendlyPos="true" lane="833533104#1_0" pos="0.00" length="41.19"/>
        <access friendlyPos="true" lane="833533098_0" pos="55.80" length="26.78"/>
        <access friendlyPos="true" lane="833533113_0" pos="0.00" length="32.46"/>
    </busStop>
    <busStop id="400109_0" lane="993517671#1_0" startPos="0.00" endPos="13.00" name="5 AV/E 106 ST" friendlyPos="true">
        <access friendlyPos="true" lane="833376616#9_0" pos="3.51" length="5.12"/>
        <access friendlyPos="true" lane="833376596#0_0" pos="0.92" length="9.00"/>
        <access friendlyPos="true" lane="833376616#8_0" pos="6.06" length="13.75"/>
        <access friendlyPos="true" lane="833376596#1_0" pos="0.00" length="26.08"/>
        <access friendlyPos="true" lane="47091890#4_0" pos="14.40" length="27.12"/>
        <access friendlyPos="true" lane="833376616#7_0" pos="8.10" length="29.81"/>
        <access friendlyPos="true" lane="833376604_0" pos="58.39" length="26.12"/>
        <access friendlyPos="true" lane="833376612#0_0" pos="0.00" length="28.11"/>
        <access friendlyPos="true" lane="833376613_0" pos="0.00" length="31.20"/>
        <access friendlyPos="true" lane="833376600#1_0" pos="0.79" length="45.27"/>
    </busStop>
    <busStop id="400110_0" lane="195743332#4_0" startPos="0.00" endPos="13.00" name="5 AV/E 104 ST" friendlyPos="true">
        <access friendlyPos="true" lane="833376609#0_0" pos="3.25" length="4.89"/>
        <access friendlyPos="true" lane="833376616#14_0" pos="0.62" length="10.16"/>
        <access friendlyPos="true" lane="833376616#13_0" pos="9.26" length="13.21"/>
        <access friendlyPos="true" lane="833376609#1_0" pos="0.00" length="18.97"/>
        <access friendlyPos="true" lane="833376605#0_0" pos="0.00" length="20.93"/>
        <access friendlyPos="true" lane="833376598#0_0" pos="0.20" length="31.87"/>
        <access friendlyPos="true" lane="833376605#1_0" pos="0.00" length="31.57"/>
        <access friendlyPos="true" lane="833376598#1_0" pos="0.00" length="26.08"/>
        <access friendlyPos="true" lane="833376619_0" pos="60.16" length="20.06"/>
        <access friendlyPos="true" lane="833376610#0_0" pos="0.00" length="24.26"/>
    </busStop>
    <busStop id="400111_0" lane="195743332#10_0" startPos="0.02" endPos="13.02" name="5 AV/E 102 ST" friendlyPos="true">
        <access friendlyPos="true" lane="756080943#0_0" pos="12.96" length="5.46"/>
        <access friendlyPos="true" lane="759042746#0_0" pos="0.93" length="23.23"/>
        <access friendlyPos="true" lane="430633041_0" pos="11.39" length="25.26"/>
        <access friendlyPos="true" lane="47091875#0_0" pos="0.00" length="26.86"/>
        <access friendlyPos="true" lane="834028658_0" pos="45.81" length="24.12"/>
        <access friendlyPos="true" lane="430633043_0" pos="3.05" length="31.41"/>
        <access friendlyPos="true" lane="-46613674#0_0" pos="1.64" length="30.40"/>
        <access friendlyPos="true" lane="759042746#1_0" pos="0.00" length="32.47"/>
        <access friendlyPos="true" lane="815955294_0" pos="0.00" length="32.71"/>
        <access friendlyPos="true" lane="430633042_0" pos="15.61" length="33.17"/>
    </busStop>
    <busStop id="400115_0" lane="195743334#7_0" startPos="0.00" endPos="13.00" name="5 AV/E 94 ST" friendlyPos="true">
        <access friendlyPos="true" lane="549323718#5_0" pos="0.18" length="2.96"/>
        <access friendlyPos="true" lane="759419357#0_0" pos="0.00" length="4.13"/>
        <access friendlyPos="true" lane="549323718#4_0" pos="8.92" length="8.30"/>
        <access friendlyPos="true" lane="759419337#1_0" pos="2.77" length="24.99"/>
        <access friendlyPos="true" lane="759419357#1_0" pos="0.00" length="25.80"/>
        <access friendlyPos="true" lane="759419321#0_0" pos="0.00" length="27.67"/>
        <access friendlyPos="true" lane="759419337#0_0" pos="0.20" length="36.22"/>
        <access friendlyPos="true" lane="759419321#1_0" pos="0.00" length="36.32"/>
        <access friendlyPos="true" lane="46792676#2_0" pos="111.68" length="24.95"/>
        <access friendlyPos="true" lane="549323718#3_0" pos="60.46" length="28.78"/>
    </busStop>
    <busStop id="400116_0" lane="195743334#13_0" startPos="0.00" endPos="13.00" name="5 AV/E 92 ST" friendlyPos="true">
        <access friendlyPos="true" lane="549323718#9_0" pos="12.36" length="6.87"/>
        <access friendlyPos="true" lane="1117281237_0" pos="2.13" length="22.29"/>
        <access friendlyPos="true" lane="759419338#0_0" pos="48.04" length="23.12"/>
        <access friendlyPos="true" lane="549323718#8_0" pos="8.56" length="26.94"/>
        <access friendlyPos="true" lane="46792676#2_0" pos="280.90" length="25.59"/>
        <access friendlyPos="true" lane="1117281235#1_0" pos="0.00" length="30.85"/>
        <access friendlyPos="true" lane="759419338#1_0" pos="0.00" length="32.97"/>
        <access friendlyPos="true" lane="759431692#1_0" pos="0.00" length="34.82"/>
        <access friendlyPos="true" lane="759419339#1_0" pos="1.53" length="42.62"/>
        <access friendlyPos="true" lane="1117281236#1_0" pos="0.00" length="47.68"/>
    </busStop>
    <busStop id="400117_0" lane="440122867#1_0" startPos="0.00" endPos="13.00" name="5 AV/E 90 ST" friendlyPos="true">
        <access friendlyPos="true" lane="549323724#0_0" pos="3.36" length="7.05"/>
        <access friendlyPos="true" lane="759431719#0_0" pos="0.93" length="9.49"/>
        <access friendlyPos="true" lane="759431705#0_0" pos="15.19" length="16.05"/>
        <access friendlyPos="true" lane="549323722_0" pos="5.67" length="16.58"/>
        <access friendlyPos="true" lane="759431698_0" pos="52.94" length="23.53"/>
        <access friendlyPos="true" lane="759431687#0_0" pos="3.01" length="24.37"/>
        <access friendlyPos="true" lane="759431719#1_0" pos="0.00" length="25.60"/>
        <access friendlyPos="true" lane="759431709#0_0" pos="15.96" length="27.60"/>
        <access friendlyPos="true" lane="1081021568_0" pos="0.00" length="29.41"/>
        <access friendlyPos="true" lane="759431710#0_0" pos="0.00" length="27.80"/>
    </busStop>
    <busStop id="400118_0" lane="1217393802#1_0" startPos="0.00" endPos="13.00" name="5 AV/E 87 ST" friendlyPos="true">
        <access friendlyPos="true" lane="759449780#0_0" pos="0.83" length="1.13"/>
        <access friendlyPos="true" lane="431219195#2_0" pos="0.00" length="5.60"/>
        <access friendlyPos="true" lane="431219195#1_0" pos="9.32" length="7.04"/>
        <access friendlyPos="true" lane="759449780#1_0" pos="0.00" length="21.45"/>
        <access friendlyPos="true" lane="759449777#1_0" pos="2.11" length="22.71"/>
        <access friendlyPos="true" lane="759449777#0_0" pos="0.20" length="31.12"/>
        <access friendlyPos="true" lane="759449782#1_0" pos="0.00" length="31.14"/>
        <access friendlyPos="true" lane="759449782#0_0" pos="0.00" length="23.21"/>
        <access friendlyPos="true" lane="759449776_0" pos="61.22" length="23.47"/>
        <access friendlyPos="true" lane="849328138_0" pos="0.00" length="26.93"/>
    </busStop>
    <busStop id="400119_0" lane="68668532#1_0" startPos="34.87" endPos="47.87" name="5 AV/E 84 ST" friendlyPos="true">
        <access friendlyPos="true" lane="377574471_0" pos="6.91" length="5.28"/>
        <access friendlyPos="true" lane="214248095#1_0" pos="2.43" length="14.95"/>
        <access friendlyPos="true" lane="214248083_0" pos="0.00" length="17.97"/>
        <access friendlyPos="true" lane="214248095#0_0" pos="0.20" length="30.13"/>
        <access friendlyPos="true" lane="214248102_0" pos="12.13" length="25.04"/>
        <access friendlyPos="true" lane="857870246#1_0" pos="0.00" length="35.33"/>
        <access friendlyPos="true" lane="377574476#1_0" pos="0.34" length="36.27"/>
        <access friendlyPos="true" lane="1111998568_0" pos="0.00" length="36.52"/>
        <access friendlyPos="true" lane="739699911#0_0" pos="4.49" length="36.45"/>
        <access friendlyPos="true" lane="857870246#2_0" pos="0.00" length="41.24"/>
    </busStop>
    <busStop id="400120_0" lane="68668532#13_0" startPos="48.11" endPos="61.11" name="5 AV/E 80 ST" friendlyPos="true">
        <access friendlyPos="true" lane="332132157#0_0" pos="4.49" length="4.35"/>
        <access friendlyPos="true" lane="332132158#6_0" pos="61.49" length="10.67"/>
        <access friendlyPos="true" lane="332132158#7_0" pos="0.00" length="13.12"/>
        <access friendlyPos="true" lane="332132156#0_0" pos="0.00" length="14.89"/>
        <access friendlyPos="true" lane="332132158#8_0" pos="0.00" length="19.12"/>
        <access friendlyPos="true" lane="332132157#1_0" pos="0.00" length="21.86"/>
        <access friendlyPos="true" lane="332132152#0_0" pos="0.00" length="23.77"/>
        <access friendlyPos="true" lane="332132156#1_0" pos="0.00" length="33.60"/>
        <access friendlyPos="true" lane="332132152#1_0" pos="0.00" length="33.96"/>
        <access friendlyPos="true" lane="377574444_0" pos="60.92" length="23.11"/>
    </busStop>
    <busStop id="400121_0" lane="587061856#1_0" startPos="9.22" endPos="22.22" name="5 AV/E 79 ST" friendlyPos="true">
        <access friendlyPos="true" lane="425335564#3_0" pos="17.32" length="12.18"/>
        <access friendlyPos="true" lane="759491304#1_0" pos="7.99" length="18.61"/>
        <access friendlyPos="true" lane="759491304#0_0" pos="27.02" length="26.92"/>
        <access friendlyPos="true" lane="768416292_0" pos="0.00" length="27.33"/>
        <access friendlyPos="true" lane="425335564#2_0" pos="0.20" length="34.35"/>
        <access friendlyPos="true" lane="425335559_0" pos="25.11" length="33.47"/>
        <access friendlyPos="true" lane="162138004#0_0" pos="0.20" length="36.39"/>
        <access friendlyPos="true" lane="425335564#1_0" pos="0.20" length="38.43"/>
        <access friendlyPos="true" lane="332132155#0_0" pos="0.00" length="39.87"/>
        <access friendlyPos="true" lane="425335564#0_0" pos="0.20" length="41.68"/>
    </busStop>
    <busStop id="400122_0" lane="587061856#7_0" startPos="0.00" endPos="13.00" name="5 AV/E 77 ST" friendlyPos="true">
        <access friendlyPos="true" lane="425335564#7_0" pos="9.64" length="7.20"/>
        <access friendlyPos="true" lane="759491308#0_0" pos="4.37" length="15.71"/>
        <access friendlyPos="true" lane="425335564#6_0" pos="2.07" length="23.27"/>
        <access friendlyPos="true" lane="759491308#1_0" pos="0.00" length="23.56"/>
        <access friendlyPos="true" lane="759491301_0" pos="57.10" length="23.71"/>
        <access friendlyPos="true" lane="759491299#0_0" pos="0.00" length="25.98"/>
        <access friendlyPos="true" lane="1111985812_0" pos="0.00" length="28.81"/>
        <access friendlyPos="true" lane="759491307#1_0" pos="3.12" length="29.30"/>
        <access friendlyPos="true" lane="759491299#1_0" pos="0.00" length="37.78"/>
        <access friendlyPos="true" lane="759491307#0_0" pos="0.20" length="37.99"/>
    </busStop>
    <busStop id="400123_0" lane="587061856#13_0" startPos="0.00" endPos="13.00" name="5 AV/E 75 ST" friendlyPos="true">
        <access friendlyPos="true" lane="834028661#2_0" pos="2.24" length="3.92"/>
        <access friendlyPos="true" lane="930431419_0" pos="0.00" length="7.20"/>
        <access friendlyPos="true" lane="834028661#1_0" pos="8.69" length="11.54"/>
        <access friendlyPos="true" lane="930431420#1_0" pos="0.20" length="25.10"/>
        <access friendlyPos="true" lane="834028671#1_0" pos="0.00" length="25.16"/>
        <access friendlyPos="true" lane="834028666#1_0" pos="2.70" length="27.77"/>
        <access friendlyPos="true" lane="1158346681#1_0" pos="0.20" length="37.83"/>
        <access friendlyPos="true" lane="834028664#1_0" pos="0.00" length="28.20"/>
        <access friendlyPos="true" lane="834028667#1_0" pos="0.00" length="38.68"/>
        <access friendlyPos="true" lane="834028664#0_0" pos="58.56" length="26.61"/>
    </busStop>
    <busStop id="400124_0" lane="195743339#1_0" startPos="37.34" endPos="50.34" name="5 AV/E 72 ST" friendlyPos="true">
        <access friendlyPos="true" lane="835393105#0_0" pos="50.72" length="10.51"/>
        <access friendlyPos="true" lane="835393104_0" pos="12.91" length="20.51"/>
        <access friendlyPos="true" lane="835393102#1_0" pos="0.00" length="22.52"/>
        <access friendlyPos="true" lane="835393105#1_0" pos="0.00" length="27.89"/>
        <access friendlyPos="true" lane="835393102#0_0" pos="0.20" length="29.83"/>
        <access friendlyPos="true" lane="1118280533_0" pos="129.34" length="33.56"/>
        <access friendlyPos="true" lane="835393093#1_0" pos="0.20" length="31.95"/>
        <access friendlyPos="true" lane="835393086#0_0" pos="1.91" length="43.46"/>
        <access friendlyPos="true" lane="835393086#1_0" pos="0.00" length="48.25"/>
        <access friendlyPos="true" lane="835393093#0_0" pos="0.20" length="47.47"/>
    </busStop>
    <busStop id="400125_0" lane="195743339#10_0" startPos="15.59" endPos="28.59" name="5 AV/E 69 ST" friendlyPos="true">
        <access friendlyPos="true" lane="835393105#7_0" pos="28.59" length="5.98"/>
        <access friendlyPos="true" lane="835394477_0" pos="32.06" length="25.07"/>
        <access friendlyPos="true" lane="835393108#5_0" pos="0.70" length="46.63"/>
        <access friendlyPos="true" lane="835393105#6_0" pos="9.40" length="50.74"/>
        <access friendlyPos="true" lane="835393108#4_0" pos="0.20" length="52.22"/>
        <access friendlyPos="true" lane="835393081#1_0" pos="0.00" length="52.34"/>
        <access friendlyPos="true" lane="835393105#8_0" pos="0.00" length="56.51"/>
        <access friendlyPos="true" lane="1111709973_0" pos="0.00" length="54.87"/>
        <access friendlyPos="true" lane="835393108#3_0" pos="0.20" length="54.20"/>
        <access friendlyPos="true" lane="835393081#0_0" pos="0.20" length="56.92"/>
    </busStop>
    <busStop id="400126_0" lane="195743342#1_0" startPos="34.22" endPos="47.22" name="5 AV/E 66 ST" friendlyPos="true">
        <access friendlyPos="true" lane="835393115_0" pos="47.22" length="1.89"/>
        <access friendlyPos="true" lane="835393100#1_0" pos="0.00" length="20.63"/>
        <access friendlyPos="true" lane="835393088#0_0" pos="0.00" length="22.02"/>
        <access friendlyPos="true" lane="1312529207_0" pos="81.99" length="23.80"/>
        <access friendlyPos="true" lane="835393106_0" pos="10.61" length="28.42"/>
        <access friendlyPos="true" lane="835393100#0_0" pos="0.20" length="33.16"/>
        <access friendlyPos="true" lane="835393109#1_0" pos="0.20" length="35.37"/>
        <access friendlyPos="true" lane="1111744576_0" pos="0.00" length="37.71"/>
        <access friendlyPos="true" lane="835393088#1_0" pos="0.00" length="42.80"/>
        <access friendlyPos="true" lane="833940293#0_0" pos="0.20" length="44.55"/>
    </busStop>
    <busStop id="400127_0" lane="195743342#10_0" startPos="0.00" endPos="13.00" name="5 AV/E 63 ST" friendlyPos="true">
        <access friendlyPos="true" lane="835393097#0_0" pos="2.90" length="5.09"/>
        <access friendlyPos="true" lane="835393113#5_0" pos="0.53" length="10.42"/>
        <access friendlyPos="true" lane="835393113#4_0" pos="8.99" length="13.33"/>
        <access friendlyPos="true" lane="835393097#1_0" pos="0.00" length="20.79"/>
        <access friendlyPos="true" lane="835393116#0_0" pos="0.00" length="22.72"/>
        <access friendlyPos="true" lane="835393094#1_0" pos="0.00" length="25.71"/>
        <access friendlyPos="true" lane="835393094#0_0" pos="0.20" length="32.70"/>
        <access friendlyPos="true" lane="835393116#1_0" pos="0.00" length="32.52"/>
        <access friendlyPos="true" lane="835393092_0" pos="59.76" length="22.01"/>
        <access friendlyPos="true" lane="1111727485_0" pos="128.59" length="26.11"/>
    </busStop>
    <busStop id="400128_0" lane="195743342#13_0" startPos="38.63" endPos="51.63" name="5 AV/E 61 ST" friendlyPos="true">
        <access friendlyPos="true" lane="835393113#7_0" pos="51.94" length="14.03"/>
        <access friendlyPos="true" lane="835393083#1_0" pos="0.00" length="18.26"/>
        <access friendlyPos="true" lane="835393082_0" pos="8.09" length="19.99"/>
        <access friendlyPos="true" lane="835393113#8_0" pos="0.00" length="24.86"/>
        <access friendlyPos="true" lane="835393083#0_0" pos="0.20" length="24.26"/>
        <access friendlyPos="true" lane="1111727482_0" pos="0.00" length="28.57"/>
        <access friendlyPos="true" lane="835393118#1_0" pos="0.20" length="26.41"/>
        <access friendlyPos="true" lane="835393118#0_0" pos="0.20" length="42.61"/>