<?xml version="1.0" encoding="UTF-8"?>

<!-- generated on 2025-09-19 13:22:32.570791 by gtfs2pt.py UNKNOWN
<configuration>
    <gtfs value="gtfs_m.zip"/>
    <date value="20250903"/>
    <modes value="bus"/>
    <vtype-output value="gtfs_out/pt_vtypes.xml"/>
    <verbose value="True"/>
    <network value="osm.net.xml.gz"/>
    <route-output value="gtfs_out/gtfs_publictransport.rou.xml"/>
    <additional-output value="gtfs_out/gtfs_publictransport.add.xml"/>
    <stops value="osm_stops.add.xml"/>
    <skip-fcd value="True"/>
    <osm-routes value="osm_ptlines.xml"/>
    <repair value="True"/>
</configuration>
-->

<additional xmlns:xsi="http://www.w3.org/2001/XMLSchema-instance" xsi:noNamespaceSchemaLocation="http://sumo.dlr.de/xsd/additional_file.xsd">
    <vType id="bus" vClass="bus"/>
</additional>
